@<TRIPOS>MOLECULE
3R137
137   139    1
SMALL
USER_CHARGES


@<TRIPOS>ATOM
      1 CA         24.2934   -2.2037   -7.4180 C.3       0 UNK        -0.2020 
      2 C          24.7626   -3.1599   -6.3348 C.2       0 UNK         0.4855 
      3 O          23.9800   -3.9851   -5.8618 O.2       0 UNK        -0.5197 
      4 N          26.0336   -3.0538   -5.9301 N.am      1 UNK        -0.4892 
      5 CA         26.6545   -3.9029   -4.9127 C.3       1 UNK         0.0835 
      6 C6         28.1951   -3.7828   -4.9294 C.3       12 UNK        -0.0855 
      7 S7         29.0067   -5.2346   -4.1765 S.3       12 UNK        -0.2931 
      8 C8         29.4646   -4.6101   -2.5232 C.3       12 UNK         0.0378 
      9 C9         30.3527   -3.3719   -2.5741 C.ar      12 UNK        -0.0802 
     10 C10        31.4957   -3.3457   -3.3783 C.ar      12 UNK        -0.0944 
     11 C11        32.2909   -2.1992   -3.4498 C.ar      12 UNK        -0.0787 
     12 C12        31.9518   -1.0762   -2.6893 C.ar      12 UNK        -0.0862 
     13 C13        30.8283   -1.1002   -1.8560 C.ar      12 UNK        -0.0733 
     14 C14        30.0303   -2.2479   -1.8084 C.ar      12 UNK        -0.0832 
     15 C15        30.4995    0.0939   -0.9706 C.3       12 UNK         0.0240 
     16 S16        28.8622    0.8031   -1.3293 S.3       12 UNK        -0.2522 
     17 C17        29.1434    1.6201   -2.9362 C.3       12 UNK        -0.0967 
     18 CA         28.1959    1.1086   -4.0512 C.3       5 UNK         0.0660 
     19 N          26.7840    1.1506   -3.6501 N.am      5 UNK        -0.4015 
     20 C          25.7701    0.6262   -4.3488 C.2       4 UNK         0.4946 
     21 O          25.9021    0.0337   -5.4228 O.2       4 UNK        -0.5353 
     22 CA         24.3645    0.8644   -3.7914 C.3       4 UNK         0.0277 
     23 CB         23.6486    1.9501   -4.6223 C.3       4 UNK        -0.1981 
     24 N          23.6285   -0.3977   -3.8078 N.am      4 UNK        -0.4209 
     25 C          22.4191   -0.6052   -3.2681 C.2       3 UNK         0.4942 
     26 O          21.7536    0.2698   -2.7126 O.2       3 UNK        -0.5208 
     27 CA         21.8564   -2.0353   -3.3345 C.3       3 UNK         0.0250 
     28 CB         21.1801   -2.3003   -4.6890 C.3       3 UNK        -0.1990 
     29 N          22.8773   -3.0527   -3.0721 N.am      3 UNK        -0.4232 
     30 C          23.3892   -3.2962   -1.8540 C.2       2 UNK         0.4993 
     31 O          23.0057   -2.7326   -0.8282 O.2       2 UNK        -0.5286 
     32 CA         24.5171   -4.3396   -1.7457 C.3       2 UNK         0.0209 
     33 CB         23.9549   -5.6990   -1.2991 C.3       2 UNK        -0.1931 
     34 N          25.2710   -4.5152   -2.9885 N.am      2 UNK        -0.4546 
     35 C          26.0582   -3.5780   -3.5315 C.2       1 UNK         0.5154 
     36 O          26.2790   -2.4830   -3.0113 O.2       1 UNK        -0.5181 
     37 C          28.4312    1.9132   -5.3448 C.2       5 UNK         0.5014 
     38 O          29.1187    1.4406   -6.2503 O.2       5 UNK        -0.5248 
     39 N          27.8187    3.1048   -5.4179 N.am      6 UNK        -0.4434 
     40 CA         27.9048    4.0376   -6.5451 C.3       6 UNK         0.0363 
     41 CB         27.3244    5.3952   -6.1164 C.3       6 UNK        -0.1936 
     42 C          27.2156    3.5423   -7.8288 C.2       6 UNK         0.5081 
     43 O          27.5171    4.0601   -8.9032 O.2       6 UNK        -0.5248 
     44 N          26.3130    2.5588   -7.7109 N.am      7 UNK        -0.4718 
     45 CA         25.6926    1.8869   -8.8540 C.3       7 UNK         0.0273 
     46 CB         24.3454    1.2881   -8.4268 C.3       7 UNK        -0.1935 
     47 C          26.6134    0.8192   -9.4723 C.2       7 UNK         0.5018 
     48 O          26.4756    0.5338  -10.6622 O.2       7 UNK        -0.5186 
     49 N          27.5397    0.2649   -8.6746 N.am      8 UNK        -0.4240 
     50 CA         28.6144   -0.6079   -9.1500 C.3       8 UNK         0.0235 
     51 CB         29.0409   -1.5807   -8.0381 C.3       8 UNK        -0.2000 
     52 C          29.7996    0.2282   -9.6542 C.2       8 UNK         0.4941 
     53 O          30.2392    0.0286  -10.7872 O.2       8 UNK        -0.5273 
     54 N          30.2723    1.1612   -8.8125 N.am      9 UNK        -0.4262 
     55 CA         31.3049    2.1868   -9.0305 C.3       9 UNK         0.0264 
     56 CB         30.8599    3.1995  -10.1026 C.3       9 UNK        -0.1955 
     57 C          32.7239    1.6765   -9.3430 C.2       9 UNK         0.5031 
     58 O          33.6824    2.1819   -8.7569 O.2       9 UNK        -0.5390 
     59 N          32.8443    0.7147  -10.2660 N.am      10 UNK        -0.4204 
     60 CA         34.0947    0.2128  -10.8474 C.3       10 UNK         0.0237 
     61 CB         33.7630   -0.8326  -11.9246 C.3       10 UNK        -0.1985 
     62 C          35.1004   -0.3616   -9.8352 C.2       10 UNK         0.4970 
     63 O          36.3051   -0.2869  -10.0809 O.2       10 UNK        -0.4914 
     64 N          34.5964   -0.9112   -8.7247 N.am      11 UNK        -0.4285 
     65 CA         35.4003   -1.4015   -7.5981 C.3       11 UNK         0.1007 
     66 C          35.9242   -0.2929   -6.6363 C.2       11 UNK         0.5703 
     67 N          35.5580    0.9735   -6.8022 N.am      11 UNK        -0.7361 
     68 O          36.6951   -0.5886   -5.7263 O.2       11 UNK        -0.4986 
     69 C69        34.6821   -2.5572   -6.8565 C.3       12 UNK        -0.0947 
     70 S70        33.0891   -2.0893   -6.0942 S.3       12 UNK        -0.2240 
     71 C71        33.5280   -2.1989   -4.3318 C.3       12 UNK         0.0194 
     72 H72        23.7760   -2.7508   -8.2054 H         1 UNK         0.0906 
     73 H73        23.6037   -1.4728   -6.9992 H         1 UNK         0.0906 
     74 H74        25.1290   -1.6708   -7.8713 H         1 UNK         0.0906 
     75 H75        26.5847   -2.2694   -6.2503 H         1 UNK         0.3140 
     76 H76        26.4001   -4.9342   -5.1697 H         1 UNK         0.1085 
     77 H77        28.5326   -2.8497   -4.4744 H         1 UNK         0.0836 
     78 H78        28.5498   -3.7477   -5.9598 H         1 UNK         0.0836 
     79 H79        28.5517   -4.4094   -1.9603 H         1 UNK         0.0731 
     80 H80        29.9918   -5.3977   -1.9835 H         1 UNK         0.0731 
     81 H81        31.7584   -4.2144   -3.9666 H         1 UNK         0.1312 
     82 H82        32.5738   -0.1925   -2.7318 H         1 UNK         0.1406 
     83 H83        29.1551   -2.2604   -1.1723 H         1 UNK         0.1631 
     84 H84        31.2574    0.8739   -1.0592 H         1 UNK         0.0717 
     85 H85        30.5171   -0.2295    0.0711 H         1 UNK         0.0717 
     86 H86        29.0202    2.6938   -2.7796 H         1 UNK         0.0934 
     87 H87        30.1833    1.4799   -3.2385 H         1 UNK         0.0934 
     88 H88        28.4454    0.0653   -4.2600 H         1 UNK         0.0739 
     89 H89        26.5931    1.5932   -2.7628 H         1 UNK         0.3093 
     90 H90        24.4432    1.1990   -2.7550 H         1 UNK         0.0818 
     91 H91        22.7158    2.2651   -4.1554 H         1 UNK         0.0819 
     92 H92        24.2665    2.8430   -4.7256 H         1 UNK         0.0819 
     93 H93        23.4123    1.5965   -5.6253 H         1 UNK         0.0819 
     94 H94        24.1345   -1.1731   -4.2148 H         1 UNK         0.3041 
     95 H95        21.0885   -2.1215   -2.5622 H         1 UNK         0.0784 
     96 H96        20.3831   -1.5785   -4.8726 H         1 UNK         0.0793 
     97 H97        21.8818   -2.2253   -5.5182 H         1 UNK         0.0793 
     98 H98        20.7310   -3.2931   -4.7204 H         1 UNK         0.0793 
     99 H99        23.2421   -3.5594   -3.8715 H         1 UNK         0.3024 
    100 H100       25.2101   -3.9843   -0.9792 H         1 UNK         0.1171 
    101 H101       23.4104   -5.6058   -0.3582 H         1 UNK         0.0786 
    102 H102       24.7519   -6.4254   -1.1386 H         1 UNK         0.0786 
    103 H103       23.2644   -6.1127   -2.0352 H         1 UNK         0.0786 
    104 H104       25.1173   -5.3768   -3.4937 H         1 UNK         0.2977 
    105 H105       27.2647    3.4061   -4.6295 H         1 UNK         0.3127 
    106 H106       28.9618    4.1763   -6.7832 H         1 UNK         0.0770 
    107 H107       26.2693    5.3182   -5.8509 H         1 UNK         0.0814 
    108 H108       27.4040    6.1258   -6.9227 H         1 UNK         0.0814 
    109 H109       27.8596    5.8045   -5.2594 H         1 UNK         0.0814 
    110 H110       26.1199    2.1781   -6.7953 H         1 UNK         0.2983 
    111 H111       25.4927    2.6251   -9.6344 H         1 UNK         0.0947 
    112 H112       23.8956    0.7083   -9.2341 H         1 UNK         0.0806 
    113 H113       23.6361    2.0702   -8.1561 H         1 UNK         0.0806 
    114 H114       24.4571    0.6293   -7.5687 H         1 UNK         0.0806 
    115 H115       27.6022    0.5829   -7.7163 H         1 UNK         0.3000 
    116 H116       28.2497   -1.2057   -9.9885 H         1 UNK         0.0850 
    117 H117       29.3538   -1.0655   -7.1296 H         1 UNK         0.0810 
    118 H118       28.2226   -2.2511   -7.7807 H         1 UNK         0.0810 
    119 H119       29.8762   -2.2029   -8.3626 H         1 UNK         0.0810 
    120 H120       29.8495    1.1979   -7.8847 H         1 UNK         0.3040 
    121 H121       31.3745    2.7258   -8.0840 H         1 UNK         0.0766 
    122 H122       29.9195    3.6759   -9.8315 H         1 UNK         0.0812 
    123 H123       30.7271    2.7309  -11.0782 H         1 UNK         0.0812 
    124 H124       31.5988    3.9932  -10.2216 H         1 UNK         0.0812 
    125 H125       31.9725    0.3628  -10.6632 H         1 UNK         0.3205 
    126 H126       34.5820    1.0601  -11.3338 H         1 UNK         0.0754 
    127 H127       33.1405   -0.4069  -12.7121 H         1 UNK         0.0769 
    128 H128       33.2330   -1.6886  -11.5048 H         1 UNK         0.0769 
    129 H129       34.6704   -1.2094  -12.3990 H         1 UNK         0.0769 
    130 H130       33.5965   -0.9151   -8.5903 H         1 UNK         0.2981 
    131 H131       36.3047   -1.8416   -8.0225 H         1 UNK         0.0541 
    132 H132       34.9259    1.2497   -7.5470 H         1 UNK         0.3459 
    133 H133       35.9168    1.6716   -6.1713 H         1 UNK         0.3459 
    134 H134       34.4802   -3.3659   -7.5605 H         1 UNK         0.0612 
    135 H135       35.3448   -2.9924   -6.1067 H         1 UNK         0.0612 
    136 H136       34.1922   -1.3722   -4.0749 H         1 UNK         0.0624 
    137 H137       34.0881   -3.1170   -4.1481 H         1 UNK         0.0624 
@<TRIPOS>BOND
     1    1    2 1    
     2    1   72 1    
     3    1   73 1    
     4    1   74 1    
     5    2    3 2    
     6    2    4 am   BACKBONE|DICT|INTERRES
     7    4    5 1    
     8    4   75 1    
     9    5    6 1    
    10    5   35 1    
    11    5   76 1    
    12    6    7 1    
    13    6   77 1    
    14    6   78 1    
    15    7    8 1    
    16    8    9 1    
    17    8   79 1    
    18    8   80 1    
    19    9   10 ar   
    20    9   14 ar   
    21   10   11 ar   
    22   10   81 1    
    23   11   12 ar   
    24   11   71 1    
    25   12   13 ar   
    26   12   82 1    
    27   13   14 ar   
    28   13   15 1    
    29   14   83 1    
    30   15   16 1    
    31   15   84 1    
    32   15   85 1    
    33   16   17 1    
    34   17   18 1    
    35   17   86 1    
    36   17   87 1    
    37   18   19 1    
    38   18   37 1    
    39   18   88 1    
    40   19   20 am   BACKBONE|DICT|INTERRES
    41   19   89 1    
    42   20   21 2    
    43   20   22 1    
    44   22   23 1    
    45   22   24 1    
    46   22   90 1    
    47   23   91 1    
    48   23   92 1    
    49   23   93 1    
    50   24   25 am   BACKBONE|DICT|INTERRES
    51   24   94 1    
    52   25   26 2    
    53   25   27 1    
    54   27   28 1    
    55   27   29 1    
    56   27   95 1    
    57   28   96 1    
    58   28   97 1    
    59   28   98 1    
    60   29   30 am   BACKBONE|DICT|INTERRES
    61   29   99 1    
    62   30   31 2    
    63   30   32 1    
    64   32   33 1    
    65   32   34 1    
    66   32  100 1    
    67   33  101 1    
    68   33  102 1    
    69   33  103 1    
    70   34   35 am   BACKBONE|DICT|INTERRES
    71   34  104 1    
    72   35   36 2    
    73   37   38 2    
    74   37   39 am   BACKBONE|DICT|INTERRES
    75   39   40 1    
    76   39  105 1    
    77   40   41 1    
    78   40   42 1    
    79   40  106 1    
    80   41  107 1    
    81   41  108 1    
    82   41  109 1    
    83   42   43 2    
    84   42   44 am   BACKBONE|DICT|INTERRES
    85   44   45 1    
    86   44  110 1    
    87   45   46 1    
    88   45   47 1    
    89   45  111 1    
    90   46  112 1    
    91   46  113 1    
    92   46  114 1    
    93   47   48 2    
    94   47   49 am   BACKBONE|DICT|INTERRES
    95   49   50 1    
    96   49  115 1    
    97   50   51 1    
    98   50   52 1    
    99   50  116 1    
   100   51  117 1    
   101   51  118 1    
   102   51  119 1    
   103   52   53 2    
   104   52   54 am   BACKBONE|DICT|INTERRES
   105   54   55 1    
   106   54  120 1    
   107   55   56 1    
   108   55   57 1    
   109   55  121 1    
   110   56  122 1    
   111   56  123 1    
   112   56  124 1    
   113   57   58 2    
   114   57   59 am   BACKBONE|DICT|INTERRES
   115   59   60 1    
   116   59  125 1    
   117   60   61 1    
   118   60   62 1    
   119   60  126 1    
   120   61  127 1    
   121   61  128 1    
   122   61  129 1    
   123   62   63 2    
   124   62   64 am   BACKBONE|DICT|INTERRES
   125   64   65 1    
   126   64  130 1    
   127   65   66 1    
   128   65   69 1    
   129   65  131 1    
   130   66   67 am   BACKBONE|DICT|INTERRES
   131   66   68 2    
   132   67  132 1    
   133   67  133 1    
   134   69   70 1    
   135   69  134 1    
   136   69  135 1    
   137   70   71 1    
   138   71  136 1    
   139   71  137 1    
@<TRIPOS>SUBSTRUCTURE
     1 UNK         1 GROUP             0       ****    0 ROOT    
