@<TRIPOS>MOLECULE
3R137
137   139    1
SMALL
USER_CHARGES


@<TRIPOS>ATOM
      1 CA         29.3250   -2.6200    3.4713 C.3       0 UNK        -0.2020 
      2 C          29.5116   -1.9345    2.1258 C.2       0 UNK         0.4855 
      3 O          29.8053   -0.7392    2.0837 O.2       0 UNK        -0.5197 
      4 N          29.3533   -2.6839    1.0281 N.am      1 UNK        -0.4892 
      5 CA         29.4451   -2.1830   -0.3486 C.3       1 UNK         0.0835 
      6 C6         29.5996   -3.3357   -1.3711 C.3       12 UNK        -0.0855 
      7 S7         31.1434   -4.2669   -1.0986 S.3       12 UNK        -0.2931 
      8 C8         30.9626   -5.6255   -2.2976 C.3       12 UNK         0.0378 
      9 C9         31.0021   -5.1472   -3.7441 C.ar      12 UNK        -0.0802 
     10 C10        32.1212   -4.4637   -4.2334 C.ar      12 UNK        -0.0944 
     11 C11        32.1760   -4.0565   -5.5692 C.ar      12 UNK        -0.0787 
     12 C12        31.1049   -4.3435   -6.4193 C.ar      12 UNK        -0.0862 
     13 C13        29.9775   -5.0181   -5.9430 C.ar      12 UNK        -0.0733 
     14 C14        29.9323   -5.4195   -4.6042 C.ar      12 UNK        -0.0832 
     15 C15        28.8148   -5.3164   -6.8819 C.3       12 UNK         0.0240 
     16 S16        27.3227   -4.3595   -6.4618 S.3       12 UNK        -0.2522 
     17 C17        27.9400   -2.6438   -6.5388 C.3       12 UNK        -0.0967 
     18 CA         27.0576   -1.7082   -7.3969 C.3       5 UNK         0.0660 
     19 N          25.6566   -1.7151   -6.9777 N.am      5 UNK        -0.4015 
     20 C          24.6424   -1.1784   -7.6703 C.2       4 UNK         0.4946 
     21 O          24.7761   -0.6464   -8.7732 O.2       4 UNK        -0.5353 
     22 CA         23.2570   -1.1916   -6.9971 C.3       4 UNK         0.0277 
     23 CB         22.4287   -2.3848   -7.4991 C.3       4 UNK        -0.1981 
     24 N          23.3207   -1.2233   -5.5299 N.am      4 UNK        -0.4209 
     25 C          23.8697   -0.2643   -4.7697 C.2       3 UNK         0.4942 
     26 O          24.3215    0.7836   -5.2350 O.2       3 UNK        -0.5208 
     27 CA         23.9497   -0.5196   -3.2501 C.3       3 UNK         0.0250 
     28 CB         23.8908   -2.0175   -2.8693 C.3       3 UNK        -0.1990 
     29 N          25.1272    0.1081   -2.6345 N.am      3 UNK        -0.4232 
     30 C          26.4161   -0.1061   -2.9425 C.2       2 UNK         0.4993 
     31 O          26.7989   -0.8553   -3.8434 O.2       2 UNK        -0.5286 
     32 CA         27.4813    0.6387   -2.1156 C.3       2 UNK         0.0209 
     33 CB         26.9182    1.5714   -1.0182 C.3       2 UNK        -0.1931 
     34 N          28.4595   -0.3009   -1.5573 N.am      2 UNK        -0.4546 
     35 C          28.2279   -1.3022   -0.6971 C.2       1 UNK         0.5154 
     36 O          27.1243   -1.5564   -0.2049 O.2       1 UNK        -0.5181 
     37 C          27.6594   -0.2871   -7.4293 C.2       5 UNK         0.5014 
     38 O          28.6512   -0.0830   -8.1306 O.2       5 UNK        -0.5248 
     39 N          27.0743    0.6775   -6.6979 N.am      6 UNK        -0.4434 
     40 CA         27.4920    2.0822   -6.7204 C.3       6 UNK         0.0363 
     41 CB         26.7842    2.8762   -5.6131 C.3       6 UNK        -0.1936 
     42 C          27.2566    2.7369   -8.0899 C.2       6 UNK         0.5081 
     43 O          28.1122    3.4864   -8.5579 O.2       6 UNK        -0.5248 
     44 N          26.1306    2.4011   -8.7334 N.am      7 UNK        -0.4718 
     45 CA         25.8149    2.8294  -10.0976 C.3       7 UNK         0.0273 
     46 CB         24.3235    2.5836  -10.3768 C.3       7 UNK        -0.1935 
     47 C          26.6880    2.1270  -11.1521 C.2       7 UNK         0.5018 
     48 O          26.9593    2.7175  -12.1981 O.2       7 UNK        -0.5186 
     49 N          27.1030    0.8858  -10.8626 N.am      8 UNK        -0.4240 
     50 CA         27.9361    0.0678  -11.7404 C.3       8 UNK         0.0235 
     51 CB         27.7693   -1.4190  -11.3830 C.3       8 UNK        -0.2000 
     52 C          29.4182    0.4718  -11.7026 C.2       8 UNK         0.4941 
     53 O          30.0099    0.6540  -12.7679 O.2       8 UNK        -0.5273 
     54 N          30.0038    0.5623  -10.4987 N.am      9 UNK        -0.4262 
     55 CA         31.4559    0.6578  -10.3146 C.3       9 UNK         0.0264 
     56 CB         32.0579   -0.7637  -10.3276 C.3       9 UNK        -0.1955 
     57 C          31.8813    1.4468   -9.0637 C.2       9 UNK         0.5031 
     58 O          33.0192    1.2801   -8.6227 O.2       9 UNK        -0.5390 
     59 N          30.9977    2.2836   -8.4978 N.am      10 UNK        -0.4204 
     60 CA         31.2006    3.1559   -7.3234 C.3       10 UNK         0.0237 
     61 CB         32.3436    4.1653   -7.5528 C.3       10 UNK        -0.1985 
     62 C          31.3667    2.4321   -5.9711 C.2       10 UNK         0.4970 
     63 O          30.9012    2.9594   -4.9607 O.2       10 UNK        -0.4914 
     64 N          31.9978    1.2534   -5.9618 N.am      11 UNK        -0.4285 
     65 CA         32.1929    0.3862   -4.7882 C.3       11 UNK         0.1007 
     66 C          30.8954   -0.1979   -4.1613 C.2       11 UNK         0.5703 
     67 N          29.7766   -0.2437   -4.8719 N.am      11 UNK        -0.7361 
     68 O          30.8963   -0.5706   -2.9912 O.2       11 UNK        -0.4986 
     69 C69        33.2646   -0.7083   -5.0462 C.3       12 UNK        -0.0947 
     70 S70        33.0314   -1.6292   -6.6074 S.3       12 UNK        -0.2240 
     71 C71        33.4020   -3.3409   -6.1151 C.3       12 UNK         0.0194 
     72 H72        29.0855   -3.6775    3.3611 H         1 UNK         0.0906 
     73 H73        30.2362   -2.5392    4.0634 H         1 UNK         0.0906 
     74 H74        28.5154   -2.1451    4.0249 H         1 UNK         0.0906 
     75 H75        29.1039   -3.6580    1.1194 H         1 UNK         0.3140 
     76 H76        30.3364   -1.5534   -0.4115 H         1 UNK         0.1085 
     77 H77        28.7501   -4.0195   -1.3175 H         1 UNK         0.0836 
     78 H78        29.6184   -2.9466   -2.3917 H         1 UNK         0.0836 
     79 H79        31.7739   -6.3382   -2.1433 H         1 UNK         0.0731 
     80 H80        30.0378   -6.1649   -2.0865 H         1 UNK         0.0731 
     81 H81        32.9510   -4.2556   -3.5717 H         1 UNK         0.1312 
     82 H82        31.1512   -4.0324   -7.4542 H         1 UNK         0.1406 
     83 H83        29.0616   -5.9462   -4.2373 H         1 UNK         0.1631 
     84 H84        28.5777   -6.3801   -6.8348 H         1 UNK         0.0717 
     85 H85        29.0872   -5.1093   -7.9180 H         1 UNK         0.0717 
     86 H86        28.9573   -2.6399   -6.9327 H         1 UNK         0.0934 
     87 H87        28.0190   -2.2858   -5.5135 H         1 UNK         0.0934 
     88 H88        27.0799   -2.0842   -8.4206 H         1 UNK         0.0739 
     89 H89        25.4704   -2.1206   -6.0720 H         1 UNK         0.3093 
     90 H90        22.7467   -0.2710   -7.2884 H         1 UNK         0.0818 
     91 H91        21.4149   -2.3619   -7.0989 H         1 UNK         0.0819 
     92 H92        22.3452   -2.3703   -8.5869 H         1 UNK         0.0819 
     93 H93        22.8804   -3.3377   -7.2202 H         1 UNK         0.0819 
     94 H94        22.9616   -2.0509   -5.0758 H         1 UNK         0.3041 
     95 H95        23.0786   -0.0283   -2.8144 H         1 UNK         0.0784 
     96 H96        22.9329   -2.4649   -3.1364 H         1 UNK         0.0793 
     97 H97        24.6790   -2.5933   -3.3567 H         1 UNK         0.0793 
     98 H98        24.0088   -2.1511   -1.7936 H         1 UNK         0.0793 
     99 H99        24.9292    0.7688   -1.8969 H         1 UNK         0.3024 
    100 H100       28.0307    1.2601   -2.8243 H         1 UNK         0.1171 
    101 H101       27.7252    2.0818   -0.4921 H         1 UNK         0.0786 
    102 H102       26.3342    1.0308   -0.2725 H         1 UNK         0.0786 
    103 H103       26.2815    2.3470   -1.4460 H         1 UNK         0.0786 
    104 H104       29.3907   -0.2501   -1.9669 H         1 UNK         0.2977 
    105 H105       26.2655    0.4510   -6.1282 H         1 UNK         0.3127 
    106 H106       28.5613    2.1068   -6.5150 H         1 UNK         0.0770 
    107 H107       25.7101    2.9466   -5.7866 H         1 UNK         0.0814 
    108 H108       27.1709    3.8947   -5.5615 H         1 UNK         0.0814 
    109 H109       26.9373    2.4231   -4.6354 H         1 UNK         0.0814 
    110 H110       25.4913    1.7516   -8.2951 H         1 UNK         0.2983 
    111 H111       26.0052    3.9025  -10.1743 H         1 UNK         0.0947 
    112 H112       24.0537    2.9238  -11.3776 H         1 UNK         0.0806 
    113 H113       23.6927    3.1241   -9.6708 H         1 UNK         0.0806 
    114 H114       24.0686    1.5250  -10.3133 H         1 UNK         0.0806 
    115 H115       26.8156    0.4796   -9.9836 H         1 UNK         0.3000 
    116 H116       27.5801    0.2015  -12.7647 H         1 UNK         0.0850 
    117 H117       28.2802   -2.0494  -12.1118 H         1 UNK         0.0810 
    118 H118       26.7198   -1.7144  -11.3778 H         1 UNK         0.0810 
    119 H119       28.1917   -1.6537  -10.4065 H         1 UNK         0.0810 
    120 H120       29.4553    0.3665   -9.6599 H         1 UNK         0.3040 
    121 H121       31.8850    1.2126  -11.1515 H         1 UNK         0.0766 
    122 H122       33.1448   -0.7396  -10.2397 H         1 UNK         0.0812 
    123 H123       31.6762   -1.3636   -9.5005 H         1 UNK         0.0812 
    124 H124       31.8269   -1.2873  -11.2553 H         1 UNK         0.0812 
    125 H125       30.0795    2.3580   -8.9194 H         1 UNK         0.3205 
    126 H126       30.2873    3.7434   -7.2339 H         1 UNK         0.0754 
    127 H127       32.3943    4.8852   -6.7348 H         1 UNK         0.0769 
    128 H128       32.1937    4.7312   -8.4723 H         1 UNK         0.0769 
    129 H129       33.3174    3.6788   -7.6121 H         1 UNK         0.0769 
    130 H130       32.3918    0.9203   -6.8370 H         1 UNK         0.2981 
    131 H131       32.6024    1.0337   -4.0106 H         1 UNK         0.0541 
    132 H132       29.7841    0.0553   -5.8336 H         1 UNK         0.3459 
    133 H133       28.9285   -0.5984   -4.4527 H         1 UNK         0.3459 
    134 H134       33.3185   -1.4048   -4.2072 H         1 UNK         0.0612 
    135 H135       34.2479   -0.2390   -5.0985 H         1 UNK         0.0612 
    136 H136       33.7611   -3.8818   -6.9917 H         1 UNK         0.0624 
    137 H137       34.2223   -3.3495   -5.3956 H         1 UNK         0.0624 
@<TRIPOS>BOND
     1    1    2 1    
     2    1   72 1    
     3    1   73 1    
     4    1   74 1    
     5    2    3 2    
     6    2    4 am   BACKBONE|DICT|INTERRES
     7    4    5 1    
     8    4   75 1    
     9    5    6 1    
    10    5   35 1    
    11    5   76 1    
    12    6    7 1    
    13    6   77 1    
    14    6   78 1    
    15    7    8 1    
    16    8    9 1    
    17    8   79 1    
    18    8   80 1    
    19    9   10 ar   
    20    9   14 ar   
    21   10   11 ar   
    22   10   81 1    
    23   11   12 ar   
    24   11   71 1    
    25   12   13 ar   
    26   12   82 1    
    27   13   14 ar   
    28   13   15 1    
    29   14   83 1    
    30   15   16 1    
    31   15   84 1    
    32   15   85 1    
    33   16   17 1    
    34   17   18 1    
    35   17   86 1    
    36   17   87 1    
    37   18   19 1    
    38   18   37 1    
    39   18   88 1    
    40   19   20 am   BACKBONE|DICT|INTERRES
    41   19   89 1    
    42   20   21 2    
    43   20   22 1    
    44   22   23 1    
    45   22   24 1    
    46   22   90 1    
    47   23   91 1    
    48   23   92 1    
    49   23   93 1    
    50   24   25 am   BACKBONE|DICT|INTERRES
    51   24   94 1    
    52   25   26 2    
    53   25   27 1    
    54   27   28 1    
    55   27   29 1    
    56   27   95 1    
    57   28   96 1    
    58   28   97 1    
    59   28   98 1    
    60   29   30 am   BACKBONE|DICT|INTERRES
    61   29   99 1    
    62   30   31 2    
    63   30   32 1    
    64   32   33 1    
    65   32   34 1    
    66   32  100 1    
    67   33  101 1    
    68   33  102 1    
    69   33  103 1    
    70   34   35 am   BACKBONE|DICT|INTERRES
    71   34  104 1    
    72   35   36 2    
    73   37   38 2    
    74   37   39 am   BACKBONE|DICT|INTERRES
    75   39   40 1    
    76   39  105 1    
    77   40   41 1    
    78   40   42 1    
    79   40  106 1    
    80   41  107 1    
    81   41  108 1    
    82   41  109 1    
    83   42   43 2    
    84   42   44 am   BACKBONE|DICT|INTERRES
    85   44   45 1    
    86   44  110 1    
    87   45   46 1    
    88   45   47 1    
    89   45  111 1    
    90   46  112 1    
    91   46  113 1    
    92   46  114 1    
    93   47   48 2    
    94   47   49 am   BACKBONE|DICT|INTERRES
    95   49   50 1    
    96   49  115 1    
    97   50   51 1    
    98   50   52 1    
    99   50  116 1    
   100   51  117 1    
   101   51  118 1    
   102   51  119 1    
   103   52   53 2    
   104   52   54 am   BACKBONE|DICT|INTERRES
   105   54   55 1    
   106   54  120 1    
   107   55   56 1    
   108   55   57 1    
   109   55  121 1    
   110   56  122 1    
   111   56  123 1    
   112   56  124 1    
   113   57   58 2    
   114   57   59 am   BACKBONE|DICT|INTERRES
   115   59   60 1    
   116   59  125 1    
   117   60   61 1    
   118   60   62 1    
   119   60  126 1    
   120   61  127 1    
   121   61  128 1    
   122   61  129 1    
   123   62   63 2    
   124   62   64 am   BACKBONE|DICT|INTERRES
   125   64   65 1    
   126   64  130 1    
   127   65   66 1    
   128   65   69 1    
   129   65  131 1    
   130   66   67 am   BACKBONE|DICT|INTERRES
   131   66   68 2    
   132   67  132 1    
   133   67  133 1    
   134   69   70 1    
   135   69  134 1    
   136   69  135 1    
   137   70   71 1    
   138   71  136 1    
   139   71  137 1    
@<TRIPOS>SUBSTRUCTURE
     1 UNK         1 GROUP             0       ****    0 ROOT    
