@<TRIPOS>MOLECULE
3R137
137   139    1
SMALL
USER_CHARGES


@<TRIPOS>ATOM
      1 CA         32.7154   -1.1097    1.6132 C.3       0 UNK        -0.2020 
      2 C          31.8053   -1.3607    0.4199 C.2       0 UNK         0.4855 
      3 O          31.8244   -0.5872   -0.5358 O.2       0 UNK        -0.5197 
      4 N          31.0173   -2.4409    0.4662 N.am      1 UNK        -0.4892 
      5 CA         30.0482   -2.8247   -0.5675 C.3       1 UNK         0.0835 
      6 C6         29.5696   -4.2871   -0.3753 C.3       12 UNK        -0.0855 
      7 S7         30.9608   -5.4720   -0.4454 S.3       12 UNK        -0.2931 
      8 C8         30.5648   -6.4816   -1.9154 C.3       12 UNK         0.0378 
      9 C9         30.2920   -5.6712   -3.1801 C.ar      12 UNK        -0.0802 
     10 C10        31.0781   -4.5648   -3.5217 C.ar      12 UNK        -0.0944 
     11 C11        30.7895   -3.8095   -4.6612 C.ar      12 UNK        -0.0787 
     12 C12        29.7293   -4.1923   -5.4883 C.ar      12 UNK        -0.0862 
     13 C13        28.9601   -5.3197   -5.1815 C.ar      12 UNK        -0.0733 
     14 C14        29.2431   -6.0490   -4.0237 C.ar      12 UNK        -0.0832 
     15 C15        27.8472   -5.7740   -6.1178 C.3       12 UNK         0.0240 
     16 S16        26.1908   -5.7152   -5.3534 S.3       12 UNK        -0.2522 
     17 C17        25.9867   -3.9429   -4.9779 C.3       12 UNK        -0.0967 
     18 CA         25.2494   -3.1559   -6.0927 C.3       5 UNK         0.0660 
     19 N          24.6975   -1.9017   -5.5814 N.am      5 UNK        -0.4015 
     20 C          23.6666   -1.2400   -6.1259 C.2       4 UNK         0.4946 
     21 O          22.9864   -1.6740   -7.0560 O.2       4 UNK        -0.5353 
     22 CA         23.3387    0.1486   -5.5429 C.3       4 UNK         0.0277 
     23 CB         22.2424    0.0352   -4.4710 C.3       4 UNK        -0.1981 
     24 N          24.5042    0.8319   -4.9728 N.am      4 UNK        -0.4209 
     25 C          25.5624    1.2536   -5.6810 C.2       3 UNK         0.4942 
     26 O          25.6383    1.1751   -6.9046 O.2       3 UNK        -0.5208 
     27 CA         26.7676    1.7899   -4.8889 C.3       3 UNK         0.0250 
     28 CB         26.6853    3.3161   -4.7322 C.3       3 UNK        -0.1990 
     29 N          26.9223    1.1569   -3.5746 N.am      3 UNK        -0.4232 
     30 C          27.1901   -0.1440   -3.3944 C.2       2 UNK         0.4993 
     31 O          27.3534   -0.9449   -4.3194 O.2       2 UNK        -0.5286 
     32 CA         27.1852   -0.6515   -1.9527 C.3       2 UNK         0.0209 
     33 CB         25.8455   -1.3409   -1.6317 C.3       2 UNK        -0.1931 
     34 N          28.2928   -1.5839   -1.7654 N.am      2 UNK        -0.4546 
     35 C          28.8487   -1.8560   -0.5785 C.2       1 UNK         0.5154 
     36 O          28.4324   -1.3943    0.4887 O.2       1 UNK        -0.5181 
     37 C          26.1746   -2.8645   -7.2888 C.2       5 UNK         0.5014 
     38 O          26.0373   -3.4903   -8.3408 O.2       5 UNK        -0.5248 
     39 N          27.1112   -1.9274   -7.0878 N.am      6 UNK        -0.4434 
     40 CA         28.1690   -1.5717   -8.0340 C.3       6 UNK         0.0363 
     41 CB         29.1655   -0.6699   -7.3016 C.3       6 UNK        -0.1936 
     42 C          27.6837   -0.8808   -9.3179 C.2       6 UNK         0.5081 
     43 O          28.3631   -0.9821  -10.3409 O.2       6 UNK        -0.5248 
     44 N          26.5552   -0.1619   -9.2380 N.am      7 UNK        -0.4718 
     45 CA         25.9466    0.6442  -10.2989 C.3       7 UNK         0.0273 
     46 CB         25.3631   -0.2623  -11.4071 C.3       7 UNK        -0.1935 
     47 C          26.9337    1.7151  -10.7972 C.2       7 UNK         0.5018 
     48 O          27.3071    2.5896  -10.0146 O.2       7 UNK        -0.5186 
     49 N          27.3778    1.6068  -12.0566 N.am      8 UNK        -0.4240 
     50 CA         28.3487    2.5014  -12.6928 C.3       8 UNK         0.0235 
     51 CB         28.4834    2.1246  -14.1773 C.3       8 UNK        -0.2000 
     52 C          29.7340    2.5302  -12.0182 C.2       8 UNK         0.4941 
     53 O          30.4253    3.5427  -12.1361 O.2       8 UNK        -0.5273 
     54 N          30.1201    1.4461  -11.3258 N.am      9 UNK        -0.4262 
     55 CA         31.3759    1.3738  -10.5705 C.3       9 UNK         0.0264 
     56 CB         31.7821   -0.0956  -10.3706 C.3       9 UNK        -0.1955 
     57 C          31.3289    2.1411   -9.2338 C.2       9 UNK         0.5031 
     58 O          32.3855    2.5639   -8.7642 O.2       9 UNK        -0.5390 
     59 N          30.1201    2.3217   -8.6728 N.am      10 UNK        -0.4204 
     60 CA         29.7615    3.1533   -7.5140 C.3       10 UNK         0.0237 
     61 CB         29.5754    4.6105   -7.9853 C.3       10 UNK        -0.1985 
     62 C          30.7047    3.0466   -6.2931 C.2       10 UNK         0.4970 
     63 O          31.1967    4.0729   -5.8187 O.2       10 UNK        -0.4914 
     64 N          30.9566    1.8200   -5.8082 N.am      11 UNK        -0.4285 
     65 CA         31.8667    1.5689   -4.6735 C.3       11 UNK         0.1007 
     66 C          31.3937    2.1177   -3.2937 C.2       11 UNK         0.5703 
     67 N          30.1051    2.3668   -3.0885 N.am      11 UNK        -0.7361 
     68 O          32.2166    2.3549   -2.4129 O.2       11 UNK        -0.4986 
     69 C69        32.3397    0.0916   -4.5971 C.3       12 UNK        -0.0947 
     70 S70        31.0521   -1.1114   -4.1197 S.3       12 UNK        -0.2240 
     71 C71        31.6368   -2.5922   -5.0000 C.3       12 UNK         0.0194 
     72 H72        32.4836   -0.1454    2.0647 H         1 UNK         0.0906 
     73 H73        32.6067   -1.8777    2.3788 H         1 UNK         0.0906 
     74 H74        33.7571   -1.0948    1.2936 H         1 UNK         0.0906 
     75 H75        31.0385   -3.0389    1.2796 H         1 UNK         0.3140 
     76 H76        30.5483   -2.7399   -1.5333 H         1 UNK         0.1085 
     77 H77        29.0708   -4.4038    0.5890 H         1 UNK         0.0836 
     78 H78        28.8257   -4.5514   -1.1293 H         1 UNK         0.0836 
     79 H79        31.3960   -7.1608   -2.1084 H         1 UNK         0.0731 
     80 H80        29.7052   -7.1082   -1.6720 H         1 UNK         0.0731 
     81 H81        31.9052   -4.2761   -2.8876 H         1 UNK         0.1312 
     82 H82        29.5139   -3.6205   -6.3789 H         1 UNK         0.1406 
     83 H83        28.6415   -6.9158   -3.7841 H         1 UNK         0.1631 
     84 H84        27.8474   -5.1869   -7.0362 H         1 UNK         0.0717 
     85 H85        28.0477   -6.8017   -6.4235 H         1 UNK         0.0717 
     86 H86        25.4001   -3.9000   -4.0591 H         1 UNK         0.0934 
     87 H87        26.9486   -3.4955   -4.7236 H         1 UNK         0.0934 
     88 H88        24.4188   -3.7687   -6.4509 H         1 UNK         0.0739 
     89 H89        25.2287   -1.4512   -4.8495 H         1 UNK         0.3093 
     90 H90        22.9574    0.7640   -6.3608 H         1 UNK         0.0818 
     91 H91        21.9391    1.0170   -4.1071 H         1 UNK         0.0819 
     92 H92        21.3509   -0.4468   -4.8753 H         1 UNK         0.0819 
     93 H93        22.5712   -0.5552   -3.6147 H         1 UNK         0.0819 
     94 H94        24.5159    0.9579   -3.9714 H         1 UNK         0.3041 
     95 H95        27.6613    1.5576   -5.4680 H         1 UNK         0.0784 
     96 H96        26.5936    3.8024   -5.7047 H         1 UNK         0.0793 
     97 H97        25.8225    3.6161   -4.1362 H         1 UNK         0.0793 
     98 H98        27.5791    3.7192   -4.2558 H         1 UNK         0.0793 
     99 H99        26.7724    1.7462   -2.7673 H         1 UNK         0.3024 
    100 H100       27.3226    0.2005   -1.2825 H         1 UNK         0.1171 
    101 H101       25.8006   -1.6558   -0.5890 H         1 UNK         0.0786 
    102 H102       25.0039   -0.6677   -1.7988 H         1 UNK         0.0786 
    103 H103       25.6888   -2.2243   -2.2511 H         1 UNK         0.0786 
    104 H104       28.6858   -1.9590   -2.6208 H         1 UNK         0.2977 
    105 H105       27.1643   -1.4911   -6.1706 H         1 UNK         0.3127 
    106 H106       28.6775   -2.4920   -8.3280 H         1 UNK         0.0770 
    107 H107       28.7335    0.3093   -7.1029 H         1 UNK         0.0814 
    108 H108       30.0778   -0.5291   -7.8776 H         1 UNK         0.0814 
    109 H109       29.4459   -1.1087   -6.3489 H         1 UNK         0.0814 
    110 H110       26.1452   -0.0250   -8.3175 H         1 UNK         0.2983 
    111 H111       25.1180    1.1858   -9.8395 H         1 UNK         0.0947 
    112 H112       24.8628    0.3268  -12.1769 H         1 UNK         0.0806 
    113 H113       24.6181   -0.9431  -10.9950 H         1 UNK         0.0806 
    114 H114       26.1251   -0.8723  -11.8934 H         1 UNK         0.0806 
    115 H115       27.0429    0.8323  -12.6113 H         1 UNK         0.3000 
    116 H116       27.9440    3.5140  -12.6328 H         1 UNK         0.0850 
    117 H117       29.1784    2.7926  -14.6883 H         1 UNK         0.0810 
    118 H118       27.5271    2.1992  -14.6955 H         1 UNK         0.0810 
    119 H119       28.8572    1.1077  -14.3034 H         1 UNK         0.0810 
    120 H120       29.4978    0.6465  -11.2684 H         1 UNK         0.3040 
    121 H121       32.1603    1.8436  -11.1685 H         1 UNK         0.0766 
    122 H122       32.0291   -0.5638  -11.3236 H         1 UNK         0.0812 
    123 H123       30.9900   -0.6857   -9.9144 H         1 UNK         0.0812 
    124 H124       32.6642   -0.1784   -9.7340 H         1 UNK         0.0812 
    125 H125       29.3241    1.9727   -9.1926 H         1 UNK         0.3205 
    126 H126       28.7857    2.8014   -7.1787 H         1 UNK         0.0754 
    127 H127       29.2179    5.2464   -7.1743 H         1 UNK         0.0769 
    128 H128       28.8425    4.6747   -8.7901 H         1 UNK         0.0769 
    129 H129       30.5106    5.0361   -8.3513 H         1 UNK         0.0769 
    130 H130       30.5385    1.0093   -6.2357 H         1 UNK         0.2981 
    131 H131       32.7676    2.1435   -4.8989 H         1 UNK         0.0541 
    132 H132       29.4290    2.1739   -3.8064 H         1 UNK         0.3459 
    133 H133       29.8175    2.7403   -2.1988 H         1 UNK         0.3459 
    134 H134       33.1586   -0.0005   -3.8814 H         1 UNK         0.0612 
    135 H135       32.7592   -0.2002   -5.5612 H         1 UNK         0.0612 
    136 H136       32.6777   -2.7813   -4.7329 H         1 UNK         0.0624 
    137 H137       31.6219   -2.4059   -6.0749 H         1 UNK         0.0624 
@<TRIPOS>BOND
     1    1    2 1    
     2    1   72 1    
     3    1   73 1    
     4    1   74 1    
     5    2    3 2    
     6    2    4 am   BACKBONE|DICT|INTERRES
     7    4    5 1    
     8    4   75 1    
     9    5    6 1    
    10    5   35 1    
    11    5   76 1    
    12    6    7 1    
    13    6   77 1    
    14    6   78 1    
    15    7    8 1    
    16    8    9 1    
    17    8   79 1    
    18    8   80 1    
    19    9   10 ar   
    20    9   14 ar   
    21   10   11 ar   
    22   10   81 1    
    23   11   12 ar   
    24   11   71 1    
    25   12   13 ar   
    26   12   82 1    
    27   13   14 ar   
    28   13   15 1    
    29   14   83 1    
    30   15   16 1    
    31   15   84 1    
    32   15   85 1    
    33   16   17 1    
    34   17   18 1    
    35   17   86 1    
    36   17   87 1    
    37   18   19 1    
    38   18   37 1    
    39   18   88 1    
    40   19   20 am   BACKBONE|DICT|INTERRES
    41   19   89 1    
    42   20   21 2    
    43   20   22 1    
    44   22   23 1    
    45   22   24 1    
    46   22   90 1    
    47   23   91 1    
    48   23   92 1    
    49   23   93 1    
    50   24   25 am   BACKBONE|DICT|INTERRES
    51   24   94 1    
    52   25   26 2    
    53   25   27 1    
    54   27   28 1    
    55   27   29 1    
    56   27   95 1    
    57   28   96 1    
    58   28   97 1    
    59   28   98 1    
    60   29   30 am   BACKBONE|DICT|INTERRES
    61   29   99 1    
    62   30   31 2    
    63   30   32 1    
    64   32   33 1    
    65   32   34 1    
    66   32  100 1    
    67   33  101 1    
    68   33  102 1    
    69   33  103 1    
    70   34   35 am   BACKBONE|DICT|INTERRES
    71   34  104 1    
    72   35   36 2    
    73   37   38 2    
    74   37   39 am   BACKBONE|DICT|INTERRES
    75   39   40 1    
    76   39  105 1    
    77   40   41 1    
    78   40   42 1    
    79   40  106 1    
    80   41  107 1    
    81   41  108 1    
    82   41  109 1    
    83   42   43 2    
    84   42   44 am   BACKBONE|DICT|INTERRES
    85   44   45 1    
    86   44  110 1    
    87   45   46 1    
    88   45   47 1    
    89   45  111 1    
    90   46  112 1    
    91   46  113 1    
    92   46  114 1    
    93   47   48 2    
    94   47   49 am   BACKBONE|DICT|INTERRES
    95   49   50 1    
    96   49  115 1    
    97   50   51 1    
    98   50   52 1    
    99   50  116 1    
   100   51  117 1    
   101   51  118 1    
   102   51  119 1    
   103   52   53 2    
   104   52   54 am   BACKBONE|DICT|INTERRES
   105   54   55 1    
   106   54  120 1    
   107   55   56 1    
   108   55   57 1    
   109   55  121 1    
   110   56  122 1    
   111   56  123 1    
   112   56  124 1    
   113   57   58 2    
   114   57   59 am   BACKBONE|DICT|INTERRES
   115   59   60 1    
   116   59  125 1    
   117   60   61 1    
   118   60   62 1    
   119   60  126 1    
   120   61  127 1    
   121   61  128 1    
   122   61  129 1    
   123   62   63 2    
   124   62   64 am   BACKBONE|DICT|INTERRES
   125   64   65 1    
   126   64  130 1    
   127   65   66 1    
   128   65   69 1    
   129   65  131 1    
   130   66   67 am   BACKBONE|DICT|INTERRES
   131   66   68 2    
   132   67  132 1    
   133   67  133 1    
   134   69   70 1    
   135   69  134 1    
   136   69  135 1    
   137   70   71 1    
   138   71  136 1    
   139   71  137 1    
@<TRIPOS>SUBSTRUCTURE
     1 UNK         1 GROUP             0       ****    0 ROOT    
