@<TRIPOS>MOLECULE
3R137
137   139    1
SMALL
USER_CHARGES


@<TRIPOS>ATOM
      1 CA         28.4519   -8.0801   -0.3735 C.3       0 UNK        -0.2020 
      2 C          27.8648   -6.8816   -1.1046 C.2       0 UNK         0.4855 
      3 O          26.8543   -6.3318   -0.6647 O.2       0 UNK        -0.5197 
      4 N          28.4940   -6.4684   -2.2119 N.am      1 UNK        -0.4892 
      5 CA         28.0264   -5.3820   -3.0806 C.3       1 UNK         0.0835 
      6 C6         29.1911   -4.7958   -3.9250 C.3       12 UNK        -0.0855 
      7 S7         29.0887   -2.9799   -4.0765 S.3       12 UNK        -0.2931 
      8 C8         30.2867   -2.4870   -2.7973 C.3       12 UNK         0.0378 
      9 C9         30.5482   -0.9898   -2.8162 C.ar      12 UNK        -0.0802 
     10 C10        31.4535   -0.4556   -3.7360 C.ar      12 UNK        -0.0944 
     11 C11        31.7356    0.9124   -3.7472 C.ar      12 UNK        -0.0787 
     12 C12        31.1006    1.7524   -2.8292 C.ar      12 UNK        -0.0862 
     13 C13        30.1794    1.2329   -1.9128 C.ar      12 UNK        -0.0733 
     14 C14        29.9115   -0.1406   -1.9057 C.ar      12 UNK        -0.0832 
     15 C15        29.4588    2.1610   -0.9444 C.3       12 UNK         0.0240 
     16 S16        27.7188    2.4271   -1.4201 S.3       12 UNK        -0.2522 
     17 C17        27.8868    3.0845   -3.1150 C.3       12 UNK        -0.0967 
     18 CA         27.6237    1.9797   -4.1775 C.3       5 UNK         0.0660 
     19 N          26.2409    1.4885   -4.1463 N.am      5 UNK        -0.4015 
     20 C          25.1303    2.1379   -4.5179 C.2       4 UNK         0.4946 
     21 O          25.1286    3.2021   -5.1411 O.2       4 UNK        -0.5353 
     22 CA         23.7924    1.4957   -4.0960 C.3       4 UNK         0.0277 
     23 CB         22.6671    2.5423   -3.9922 C.3       4 UNK        -0.1981 
     24 N          23.3454    0.4169   -4.9799 N.am      4 UNK        -0.4209 
     25 C          23.9591   -0.7590   -5.1591 C.2       3 UNK         0.4942 
     26 O          25.0267   -1.0596   -4.6182 O.2       3 UNK        -0.5208 
     27 CA         23.2414   -1.7581   -6.0919 C.3       3 UNK         0.0250 
     28 CB         23.1153   -1.2105   -7.5245 C.3       3 UNK        -0.1990 
     29 N          23.9289   -3.0486   -6.1520 N.am      3 UNK        -0.4232 
     30 C          23.9657   -3.9541   -5.1673 C.2       2 UNK         0.4993 
     31 O          23.3063   -3.8729   -4.1295 O.2       2 UNK        -0.5286 
     32 CA         24.9268   -5.1335   -5.3516 C.3       2 UNK         0.0209 
     33 CB         25.3949   -5.3620   -6.8078 C.3       2 UNK        -0.1931 
     34 N          26.0768   -4.8992   -4.4831 N.am      2 UNK        -0.4546 
     35 C          26.8587   -5.8549   -3.9738 C.2       1 UNK         0.5154 
     36 O          26.7069   -7.0575   -4.2113 O.2       1 UNK        -0.5181 
     37 C          28.0603    2.3797   -5.5987 C.2       5 UNK         0.5014 
     38 O          28.4272    1.5043   -6.3837 O.2       5 UNK        -0.5248 
     39 N          27.9805    3.6766   -5.9293 N.am      6 UNK        -0.4434 
     40 CA         28.2643    4.2269   -7.2582 C.3       6 UNK         0.0363 
     41 CB         28.1887    5.7606   -7.1973 C.3       6 UNK        -0.1936 
     42 C          27.3413    3.6848   -8.3664 C.2       6 UNK         0.5081 
     43 O          27.7428    3.6843   -9.5295 O.2       6 UNK        -0.5248 
     44 N          26.1425    3.2094   -7.9956 N.am      7 UNK        -0.4718 
     45 CA         25.2277    2.5047   -8.8964 C.3       7 UNK         0.0273 
     46 CB         23.8309    2.4449   -8.2601 C.3       7 UNK        -0.1935 
     47 C          25.7179    1.0917   -9.2677 C.2       7 UNK         0.5018 
     48 O          25.3858    0.6147  -10.3531 O.2       7 UNK        -0.5186 
     49 N          26.4883    0.4488   -8.3762 N.am      8 UNK        -0.4240 
     50 CA         27.1415   -0.8382   -8.6284 C.3       8 UNK         0.0235 
     51 CB         27.3084   -1.6160   -7.3108 C.3       8 UNK        -0.2000 
     52 C          28.5030   -0.6332   -9.3057 C.2       8 UNK         0.4941 
     53 O          28.8176   -1.3479  -10.2573 O.2       8 UNK        -0.5273 
     54 N          29.2762    0.3392   -8.7957 N.am      9 UNK        -0.4262 
     55 CA         30.6066    0.7589   -9.2531 C.3       9 UNK         0.0264 
     56 CB         30.5340    1.3759  -10.6656 C.3       9 UNK        -0.1955 
     57 C          31.6789   -0.3438   -9.1394 C.2       9 UNK         0.5031 
     58 O          32.6491   -0.3375   -9.9004 O.2       9 UNK        -0.5390 
     59 N          31.5160   -1.2512   -8.1634 N.am      10 UNK        -0.4204 
     60 CA         32.4047   -2.3932   -7.9048 C.3       10 UNK         0.0237 
     61 CB         31.7550   -3.3136   -6.8578 C.3       10 UNK        -0.1985 
     62 C          33.8410   -2.0103   -7.4919 C.2       10 UNK         0.4970 
     63 O          34.7343   -2.8543   -7.5720 O.2       10 UNK        -0.4914 
     64 N          34.0402   -0.7507   -7.0854 N.am      11 UNK        -0.4285 
     65 CA         35.3493   -0.1256   -6.8479 C.3       11 UNK         0.1007 
     66 C          36.1750    0.1276   -8.1447 C.2       11 UNK         0.5703 
     67 N          35.5897    0.0721   -9.3371 N.am      11 UNK        -0.7361 
     68 O          37.3760    0.3748   -8.0646 O.2       11 UNK        -0.4986 
     69 C69        35.2149    1.1840   -6.0240 C.3       12 UNK        -0.0947 
     70 S70        34.4154    0.9211   -4.4066 S.3       12 UNK        -0.2240 
     71 C71        32.7174    1.4712   -4.7636 C.3       12 UNK         0.0194 
     72 H72        29.3509   -8.4563   -0.8614 H         1 UNK         0.0906 
     73 H73        28.7108   -7.8062    0.6489 H         1 UNK         0.0906 
     74 H74        27.7232   -8.8894   -0.3355 H         1 UNK         0.0906 
     75 H75        29.2910   -6.9887   -2.5504 H         1 UNK         0.3140 
     76 H76        27.6366   -4.5994   -2.4247 H         1 UNK         0.1085 
     77 H77        30.1549   -5.0454   -3.4782 H         1 UNK         0.0836 
     78 H78        29.2303   -5.2296   -4.9269 H         1 UNK         0.0836 
     79 H79        29.9184   -2.7999   -1.8189 H         1 UNK         0.0731 
     80 H80        31.2288   -3.0146   -2.9551 H         1 UNK         0.0731 
     81 H81        31.9539   -1.1064   -4.4381 H         1 UNK         0.1312 
     82 H82        31.3138    2.8126   -2.8365 H         1 UNK         0.1406 
     83 H83        29.2003   -0.5439   -1.1973 H         1 UNK         0.1631 
     84 H84        29.9645    3.1259   -0.8822 H         1 UNK         0.0717 
     85 H85        29.4907    1.7348    0.0593 H         1 UNK         0.0717 
     86 H86        27.1823    3.9107   -3.2254 H         1 UNK         0.0934 
     87 H87        28.8812    3.5191   -3.2301 H         1 UNK         0.0934 
     88 H88        28.2432    1.1178   -3.9276 H         1 UNK         0.0739 
     89 H89        26.1204    0.5488   -3.7854 H         1 UNK         0.3093 
     90 H90        23.9363    1.0718   -3.0996 H         1 UNK         0.0818 
     91 H91        21.7558    2.1085   -3.5803 H         1 UNK         0.0819 
     92 H92        22.9577    3.3634   -3.3353 H         1 UNK         0.0819 
     93 H93        22.4250    2.9748   -4.9641 H         1 UNK         0.0819 
     94 H94        22.4769    0.5807   -5.4678 H         1 UNK         0.3041 
     95 H95        22.2387   -1.9233   -5.6918 H         1 UNK         0.0784 
     96 H96        24.0907   -1.0148   -7.9678 H         1 UNK         0.0793 
     97 H97        22.5944   -1.9167   -8.1715 H         1 UNK         0.0793 
     98 H98        22.5466   -0.2810   -7.5531 H         1 UNK         0.0793 
     99 H99        24.5201   -3.2033   -6.9543 H         1 UNK         0.3024 
    100 H100       24.3932   -6.0254   -5.0143 H         1 UNK         0.1171 
    101 H101       24.5461   -5.4606   -7.4861 H         1 UNK         0.0786 
    102 H102       25.9719   -6.2833   -6.8907 H         1 UNK         0.0786 
    103 H103       26.0269   -4.5510   -7.1709 H         1 UNK         0.0786 
    104 H104       26.2506   -3.9325   -4.2363 H         1 UNK         0.2977 
    105 H105       27.5997    4.3195   -5.2500 H         1 UNK         0.3127 
    106 H106       29.2854    3.9427   -7.5215 H         1 UNK         0.0770 
    107 H107       27.1924    6.1044   -6.9160 H         1 UNK         0.0814 
    108 H108       28.4233    6.2012   -8.1674 H         1 UNK         0.0814 
    109 H109       28.9014    6.1662   -6.4791 H         1 UNK         0.0814 
    110 H110       25.8692    3.2760   -7.0186 H         1 UNK         0.2983 
    111 H111       25.1533    3.0777   -9.8235 H         1 UNK         0.0947 
    112 H112       23.1189    1.9540   -8.9251 H         1 UNK         0.0806 
    113 H113       23.4460    3.4434   -8.0524 H         1 UNK         0.0806 
    114 H114       23.8410    1.8901   -7.3234 H         1 UNK         0.0806 
    115 H115       26.7672    0.9373   -7.5341 H         1 UNK         0.3000 
    116 H116       26.5186   -1.4379   -9.2959 H         1 UNK         0.0850 
    117 H117       27.7916   -2.5787   -7.4828 H         1 UNK         0.0810 
    118 H118       27.9148   -1.0765   -6.5828 H         1 UNK         0.0810 
    119 H119       26.3461   -1.8175   -6.8468 H         1 UNK         0.0810 
    120 H120       28.9309    0.8255   -7.9680 H         1 UNK         0.3040 
    121 H121       30.9187    1.5491   -8.5687 H         1 UNK         0.0766 
    122 H122       29.7802    2.1616  -10.7164 H         1 UNK         0.0812 
    123 H123       30.2913    0.6286  -11.4216 H         1 UNK         0.0812 
    124 H124       31.4872    1.8249  -10.9475 H         1 UNK         0.0812 
    125 H125       30.6924   -1.1774   -7.5840 H         1 UNK         0.3205 
    126 H126       32.4880   -2.9533   -8.8385 H         1 UNK         0.0754 
    127 H127       32.3706   -4.1956   -6.6757 H         1 UNK         0.0769 
    128 H128       30.7783   -3.6672   -7.1893 H         1 UNK         0.0769 
    129 H129       31.6195   -2.8108   -5.9015 H         1 UNK         0.0769 
    130 H130       33.2468   -0.1320   -7.0618 H         1 UNK         0.2981 
    131 H131       35.9360   -0.8283   -6.2532 H         1 UNK         0.0541 
    132 H132       36.1446    0.2357  -10.1617 H         1 UNK         0.3459 
    133 H133       34.5983   -0.1222   -9.4310 H         1 UNK         0.3459 
    134 H134       36.2005    1.6099   -5.8272 H         1 UNK         0.0612 
    135 H135       34.6659    1.9421   -6.5859 H         1 UNK         0.0612 
    136 H136       32.4147    1.1427   -5.7580 H         1 UNK         0.0624 
    137 H137       32.6915    2.5619   -4.7774 H         1 UNK         0.0624 
@<TRIPOS>BOND
     1    1    2 1    
     2    1   72 1    
     3    1   73 1    
     4    1   74 1    
     5    2    3 2    
     6    2    4 am   BACKBONE|DICT|INTERRES
     7    4    5 1    
     8    4   75 1    
     9    5    6 1    
    10    5   35 1    
    11    5   76 1    
    12    6    7 1    
    13    6   77 1    
    14    6   78 1    
    15    7    8 1    
    16    8    9 1    
    17    8   79 1    
    18    8   80 1    
    19    9   10 ar   
    20    9   14 ar   
    21   10   11 ar   
    22   10   81 1    
    23   11   12 ar   
    24   11   71 1    
    25   12   13 ar   
    26   12   82 1    
    27   13   14 ar   
    28   13   15 1    
    29   14   83 1    
    30   15   16 1    
    31   15   84 1    
    32   15   85 1    
    33   16   17 1    
    34   17   18 1    
    35   17   86 1    
    36   17   87 1    
    37   18   19 1    
    38   18   37 1    
    39   18   88 1    
    40   19   20 am   BACKBONE|DICT|INTERRES
    41   19   89 1    
    42   20   21 2    
    43   20   22 1    
    44   22   23 1    
    45   22   24 1    
    46   22   90 1    
    47   23   91 1    
    48   23   92 1    
    49   23   93 1    
    50   24   25 am   BACKBONE|DICT|INTERRES
    51   24   94 1    
    52   25   26 2    
    53   25   27 1    
    54   27   28 1    
    55   27   29 1    
    56   27   95 1    
    57   28   96 1    
    58   28   97 1    
    59   28   98 1    
    60   29   30 am   BACKBONE|DICT|INTERRES
    61   29   99 1    
    62   30   31 2    
    63   30   32 1    
    64   32   33 1    
    65   32   34 1    
    66   32  100 1    
    67   33  101 1    
    68   33  102 1    
    69   33  103 1    
    70   34   35 am   BACKBONE|DICT|INTERRES
    71   34  104 1    
    72   35   36 2    
    73   37   38 2    
    74   37   39 am   BACKBONE|DICT|INTERRES
    75   39   40 1    
    76   39  105 1    
    77   40   41 1    
    78   40   42 1    
    79   40  106 1    
    80   41  107 1    
    81   41  108 1    
    82   41  109 1    
    83   42   43 2    
    84   42   44 am   BACKBONE|DICT|INTERRES
    85   44   45 1    
    86   44  110 1    
    87   45   46 1    
    88   45   47 1    
    89   45  111 1    
    90   46  112 1    
    91   46  113 1    
    92   46  114 1    
    93   47   48 2    
    94   47   49 am   BACKBONE|DICT|INTERRES
    95   49   50 1    
    96   49  115 1    
    97   50   51 1    
    98   50   52 1    
    99   50  116 1    
   100   51  117 1    
   101   51  118 1    
   102   51  119 1    
   103   52   53 2    
   104   52   54 am   BACKBONE|DICT|INTERRES
   105   54   55 1    
   106   54  120 1    
   107   55   56 1    
   108   55   57 1    
   109   55  121 1    
   110   56  122 1    
   111   56  123 1    
   112   56  124 1    
   113   57   58 2    
   114   57   59 am   BACKBONE|DICT|INTERRES
   115   59   60 1    
   116   59  125 1    
   117   60   61 1    
   118   60   62 1    
   119   60  126 1    
   120   61  127 1    
   121   61  128 1    
   122   61  129 1    
   123   62   63 2    
   124   62   64 am   BACKBONE|DICT|INTERRES
   125   64   65 1    
   126   64  130 1    
   127   65   66 1    
   128   65   69 1    
   129   65  131 1    
   130   66   67 am   BACKBONE|DICT|INTERRES
   131   66   68 2    
   132   67  132 1    
   133   67  133 1    
   134   69   70 1    
   135   69  134 1    
   136   69  135 1    
   137   70   71 1    
   138   71  136 1    
   139   71  137 1    
@<TRIPOS>SUBSTRUCTURE
     1 UNK         1 GROUP             0       ****    0 ROOT    
