@<TRIPOS>MOLECULE
3R137
137   139    1
SMALL
USER_CHARGES


@<TRIPOS>ATOM
      1 CA         30.5514    0.7328   -2.5022 C.3       0 UNK        -0.2020 
      2 C          29.5463   -0.4025   -2.3813 C.2       0 UNK         0.4855 
      3 O          28.8826   -0.7368   -3.3602 O.2       0 UNK        -0.5197 
      4 N          29.4230   -0.9935   -1.1867 N.am      1 UNK        -0.4892 
      5 CA         28.4359   -2.0366   -0.8874 C.3       1 UNK         0.0835 
      6 C6         28.8143   -2.8783    0.3609 C.3       12 UNK        -0.0855 
      7 S7         30.5160   -3.5389    0.3581 S.3       12 UNK        -0.2931 
      8 C8         30.3644   -5.0263   -0.6857 C.3       12 UNK         0.0378 
      9 C9         30.4698   -4.6888   -2.1667 C.ar      12 UNK        -0.0802 
     10 C10        31.6530   -4.1409   -2.6704 C.ar      12 UNK        -0.0944 
     11 C11        31.7630   -3.8030   -4.0209 C.ar      12 UNK        -0.0787 
     12 C12        30.6849   -4.0381   -4.8798 C.ar      12 UNK        -0.0862 
     13 C13        29.4997   -4.5985   -4.3922 C.ar      12 UNK        -0.0733 
     14 C14        29.3982   -4.9237   -3.0347 C.ar      12 UNK        -0.0832 
     15 C15        28.3292   -4.8586   -5.3294 C.3       12 UNK         0.0240 
     16 S16        27.3633   -3.3459   -5.6290 S.3       12 UNK        -0.2522 
     17 C17        27.9286   -2.8795   -7.3042 C.3       12 UNK        -0.0967 
     18 CA         27.2418   -1.6089   -7.8687 C.3       5 UNK         0.0660 
     19 N          25.7798   -1.6800   -7.7749 N.am      5 UNK        -0.4015 
     20 C          24.9075   -0.7409   -8.1683 C.2       4 UNK         0.4946 
     21 O          25.2296    0.2806   -8.7767 O.2       4 UNK        -0.5353 
     22 CA         23.4355   -0.9313   -7.7569 C.3       4 UNK         0.0277 
     23 CB         22.6282   -1.5050   -8.9320 C.3       4 UNK        -0.1981 
     24 N          23.2161   -1.7614   -6.5612 N.am      4 UNK        -0.4209 
     25 C          23.7726   -1.5686   -5.3555 C.2       3 UNK         0.4942 
     26 O          24.6009   -0.6844   -5.1162 O.2       3 UNK        -0.5208 
     27 CA         23.3538   -2.5363   -4.2398 C.3       3 UNK         0.0250 
     28 CB         23.6461   -4.0089   -4.5936 C.3       3 UNK        -0.1990 
     29 N          24.0689   -2.1619   -3.0239 N.am      3 UNK        -0.4232 
     30 C          23.6873   -2.4217   -1.7709 C.2       2 UNK         0.4993 
     31 O          22.6878   -3.0824   -1.4821 O.2       2 UNK        -0.5286 
     32 CA         24.5921   -1.8581   -0.6660 C.3       2 UNK         0.0209 
     33 CB         24.1901   -2.3243    0.7481 C.3       2 UNK        -0.1931 
     34 N          25.9883   -2.2196   -0.9235 N.am      2 UNK        -0.4546 
     35 C          27.0349   -1.4187   -0.6903 C.2       1 UNK         0.5154 
     36 O          26.9253   -0.2611   -0.2749 O.2       1 UNK        -0.5181 
     37 C          27.8424   -0.3237   -7.2592 C.2       5 UNK         0.5014 
     38 O          28.8304    0.1761   -7.8000 O.2       5 UNK        -0.5248 
     39 N          27.2134    0.2260   -6.2082 N.am      6 UNK        -0.4434 
     40 CA         27.5943    1.4877   -5.5671 C.3       6 UNK         0.0363 
     41 CB         26.7153    1.7151   -4.3259 C.3       6 UNK        -0.1936 
     42 C          27.5028    2.7079   -6.5005 C.2       6 UNK         0.5081 
     43 O          28.2588    3.6608   -6.3140 O.2       6 UNK        -0.5248 
     44 N          26.5884    2.6589   -7.4779 N.am      7 UNK        -0.4718 
     45 CA         26.4051    3.6923   -8.4952 C.3       7 UNK         0.0273 
     46 CB         24.9010    3.9386   -8.6993 C.3       7 UNK        -0.1935 
     47 C          27.0674    3.2908   -9.8202 C.2       7 UNK         0.5018 
     48 O          27.6941    4.1361  -10.4595 O.2       7 UNK        -0.5186 
     49 N          26.9024    2.0215  -10.2201 N.am      8 UNK        -0.4240 
     50 CA         27.3509    1.4940  -11.5098 C.3       8 UNK         0.0235 
     51 CB         26.6501    0.1529  -11.7825 C.3       8 UNK        -0.2000 
     52 C          28.8748    1.3371  -11.6344 C.2       8 UNK         0.4941 
     53 O          29.3918    1.4827  -12.7434 O.2       8 UNK        -0.5273 
     54 N          29.5598    1.0276  -10.5254 N.am      9 UNK        -0.4262 
     55 CA         31.0041    0.7806  -10.4948 C.3       9 UNK         0.0264 
     56 CB         31.2612   -0.7287  -10.3381 C.3       9 UNK        -0.1955 
     57 C          31.7139    1.5614   -9.3824 C.2       9 UNK         0.5031 
     58 O          32.8481    1.9944   -9.5925 O.2       9 UNK        -0.5390 
     59 N          31.0747    1.6803   -8.2074 N.am      10 UNK        -0.4204 
     60 CA         31.5994    2.2778   -6.9690 C.3       10 UNK         0.0237 
     61 CB         31.7570    3.8049   -7.1251 C.3       10 UNK        -0.1985 
     62 C          32.8877    1.5922   -6.4627 C.2       10 UNK         0.4970 
     63 O          33.7123    2.2352   -5.8112 O.2       10 UNK        -0.4914 
     64 N          33.0364    0.3036   -6.8007 N.am      11 UNK        -0.4285 
     65 CA         34.2219   -0.5407   -6.5833 C.3       11 UNK         0.1007 
     66 C          35.4867   -0.0990   -7.3830 C.2       11 UNK         0.5703 
     67 N          35.3694    0.7423   -8.4054 N.am      11 UNK        -0.7361 
     68 O          36.5929   -0.5527   -7.0983 O.2       11 UNK        -0.4986 
     69 C69        34.5190   -0.8244   -5.0818 C.3       12 UNK        -0.0947 
     70 S70        33.0517   -1.3861   -4.1574 S.3       12 UNK        -0.2240 
     71 C71        33.0394   -3.1618   -4.5392 C.3       12 UNK         0.0194 
     72 H72        31.3493    0.6425   -1.7653 H         1 UNK         0.0906 
     73 H73        31.0063    0.7315   -3.4925 H         1 UNK         0.0906 
     74 H74        30.0529    1.6912   -2.3603 H         1 UNK         0.0906 
     75 H75        29.9799   -0.6799   -0.4053 H         1 UNK         0.3140 
     76 H76        28.3844   -2.7024   -1.7503 H         1 UNK         0.1085 
     77 H77        28.1193   -3.7109    0.4864 H         1 UNK         0.0836 
     78 H78        28.7146   -2.2734    1.2648 H         1 UNK         0.0836 
     79 H79        29.4327   -5.5469   -0.4598 H         1 UNK         0.0731 
     80 H80        31.1691   -5.7163   -0.4278 H         1 UNK         0.0731 
     81 H81        32.4821   -3.9513   -2.0022 H         1 UNK         0.1312 
     82 H82        30.7636   -3.7748   -5.9251 H         1 UNK         0.1406 
     83 H83        28.4818   -5.3538   -2.6541 H         1 UNK         0.1631 
     84 H84        27.6661   -5.6125   -4.9024 H         1 UNK         0.0717 
     85 H85        28.6894   -5.2755   -6.2710 H         1 UNK         0.0717 
     86 H86        29.0145   -2.7657   -7.3004 H         1 UNK         0.0934 
     87 H87        27.7243   -3.7190   -7.9707 H         1 UNK         0.0934 
     88 H88        27.4732   -1.5667   -8.9342 H         1 UNK         0.0739 
     89 H89        25.4205   -2.4664   -7.2544 H         1 UNK         0.3093 
     90 H90        23.0452    0.0627   -7.5291 H         1 UNK         0.0818 
     91 H91        21.5613   -1.5282   -8.7088 H         1 UNK         0.0819 
     92 H92        22.7547   -0.8948   -9.8278 H         1 UNK         0.0819 
     93 H93        22.9430   -2.5190   -9.1818 H         1 UNK         0.0819 
     94 H94        22.5493   -2.5134   -6.6623 H         1 UNK         0.3041 
     95 H95        22.2818   -2.4058   -4.0776 H         1 UNK         0.0784 
     96 H96        23.1182   -4.3209   -5.4950 H         1 UNK         0.0793 
     97 H97        24.7089   -4.1816   -4.7583 H         1 UNK         0.0793 
     98 H98        23.3256   -4.6772   -3.7942 H         1 UNK         0.0793 
     99 H99        24.8686   -1.5621   -3.1921 H         1 UNK         0.3024 
    100 H100       24.4743   -0.7725   -0.7099 H         1 UNK         0.1171 
    101 H101       24.8201   -1.8658    1.5105 H         1 UNK         0.0786 
    102 H102       23.1593   -2.0482    0.9742 H         1 UNK         0.0786 
    103 H103       24.2709   -3.4068    0.8528 H         1 UNK         0.0786 
    104 H104       26.1421   -3.1512   -1.2855 H         1 UNK         0.2977 
    105 H105       26.3924   -0.2393   -5.8299 H         1 UNK         0.3127 
    106 H106       28.6320    1.3906   -5.2425 H         1 UNK         0.0770 
    107 H107       25.6664    1.8468   -4.5947 H         1 UNK         0.0814 
    108 H108       26.7764    0.8768   -3.6321 H         1 UNK         0.0814 
    109 H109       27.0296    2.6078   -3.7839 H         1 UNK         0.0814 
    110 H110       26.0352    1.8160   -7.5829 H         1 UNK         0.2983 
    111 H111       26.8583    4.6309   -8.1678 H         1 UNK         0.0947 
    112 H112       24.4295    4.2837   -7.7790 H         1 UNK         0.0806 
    113 H113       24.3806    3.0360   -9.0230 H         1 UNK         0.0806 
    114 H114       24.7303    4.7043   -9.4574 H         1 UNK         0.0806 
    115 H115       26.3327    1.3980   -9.6497 H         1 UNK         0.3000 
    116 H116       27.0349    2.1989  -12.2821 H         1 UNK         0.0850 
    117 H117       26.9269   -0.2410  -12.7614 H         1 UNK         0.0810 
    118 H118       25.5654    0.2627  -11.7722 H         1 UNK         0.0810 
    119 H119       26.9158   -0.6002  -11.0410 H         1 UNK         0.0810 
    120 H120       29.0565    0.9170   -9.6518 H         1 UNK         0.3040 
    121 H121       31.4626    1.1035  -11.4320 H         1 UNK         0.0766 
    122 H122       30.8062   -1.1263   -9.4301 H         1 UNK         0.0812 
    123 H123       32.3301   -0.9424  -10.2922 H         1 UNK         0.0812 
    124 H124       30.8571   -1.2855  -11.1837 H         1 UNK         0.0812 
    125 H125       30.1791    1.2014   -8.0987 H         1 UNK         0.3205 
    126 H126       30.8437    2.1006   -6.2026 H         1 UNK         0.0754 
    127 H127       32.0077    4.2726   -6.1724 H         1 UNK         0.0769 
    128 H128       30.8311    4.2626   -7.4740 H         1 UNK         0.0769 
    129 H129       32.5463    4.0608   -7.8325 H         1 UNK         0.0769 
    130 H130       32.2935   -0.1285   -7.3277 H         1 UNK         0.2981 
    131 H131       33.9577   -1.4977   -7.0331 H         1 UNK         0.0541 
    132 H132       34.4711    1.1308   -8.6703 H         1 UNK         0.3459 
    133 H133       36.1960    1.0060   -8.9171 H         1 UNK         0.3459 
    134 H134       34.8978    0.0752   -4.5944 H         1 UNK         0.0612 
    135 H135       35.3016   -1.5779   -4.9772 H         1 UNK         0.0612 
    136 H136       33.1255   -3.3074   -5.6168 H         1 UNK         0.0624 
    137 H137       33.9106   -3.6382   -4.0871 H         1 UNK         0.0624 
@<TRIPOS>BOND
     1    1    2 1    
     2    1   72 1    
     3    1   73 1    
     4    1   74 1    
     5    2    3 2    
     6    2    4 am   BACKBONE|DICT|INTERRES
     7    4    5 1    
     8    4   75 1    
     9    5    6 1    
    10    5   35 1    
    11    5   76 1    
    12    6    7 1    
    13    6   77 1    
    14    6   78 1    
    15    7    8 1    
    16    8    9 1    
    17    8   79 1    
    18    8   80 1    
    19    9   10 ar   
    20    9   14 ar   
    21   10   11 ar   
    22   10   81 1    
    23   11   12 ar   
    24   11   71 1    
    25   12   13 ar   
    26   12   82 1    
    27   13   14 ar   
    28   13   15 1    
    29   14   83 1    
    30   15   16 1    
    31   15   84 1    
    32   15   85 1    
    33   16   17 1    
    34   17   18 1    
    35   17   86 1    
    36   17   87 1    
    37   18   19 1    
    38   18   37 1    
    39   18   88 1    
    40   19   20 am   BACKBONE|DICT|INTERRES
    41   19   89 1    
    42   20   21 2    
    43   20   22 1    
    44   22   23 1    
    45   22   24 1    
    46   22   90 1    
    47   23   91 1    
    48   23   92 1    
    49   23   93 1    
    50   24   25 am   BACKBONE|DICT|INTERRES
    51   24   94 1    
    52   25   26 2    
    53   25   27 1    
    54   27   28 1    
    55   27   29 1    
    56   27   95 1    
    57   28   96 1    
    58   28   97 1    
    59   28   98 1    
    60   29   30 am   BACKBONE|DICT|INTERRES
    61   29   99 1    
    62   30   31 2    
    63   30   32 1    
    64   32   33 1    
    65   32   34 1    
    66   32  100 1    
    67   33  101 1    
    68   33  102 1    
    69   33  103 1    
    70   34   35 am   BACKBONE|DICT|INTERRES
    71   34  104 1    
    72   35   36 2    
    73   37   38 2    
    74   37   39 am   BACKBONE|DICT|INTERRES
    75   39   40 1    
    76   39  105 1    
    77   40   41 1    
    78   40   42 1    
    79   40  106 1    
    80   41  107 1    
    81   41  108 1    
    82   41  109 1    
    83   42   43 2    
    84   42   44 am   BACKBONE|DICT|INTERRES
    85   44   45 1    
    86   44  110 1    
    87   45   46 1    
    88   45   47 1    
    89   45  111 1    
    90   46  112 1    
    91   46  113 1    
    92   46  114 1    
    93   47   48 2    
    94   47   49 am   BACKBONE|DICT|INTERRES
    95   49   50 1    
    96   49  115 1    
    97   50   51 1    
    98   50   52 1    
    99   50  116 1    
   100   51  117 1    
   101   51  118 1    
   102   51  119 1    
   103   52   53 2    
   104   52   54 am   BACKBONE|DICT|INTERRES
   105   54   55 1    
   106   54  120 1    
   107   55   56 1    
   108   55   57 1    
   109   55  121 1    
   110   56  122 1    
   111   56  123 1    
   112   56  124 1    
   113   57   58 2    
   114   57   59 am   BACKBONE|DICT|INTERRES
   115   59   60 1    
   116   59  125 1    
   117   60   61 1    
   118   60   62 1    
   119   60  126 1    
   120   61  127 1    
   121   61  128 1    
   122   61  129 1    
   123   62   63 2    
   124   62   64 am   BACKBONE|DICT|INTERRES
   125   64   65 1    
   126   64  130 1    
   127   65   66 1    
   128   65   69 1    
   129   65  131 1    
   130   66   67 am   BACKBONE|DICT|INTERRES
   131   66   68 2    
   132   67  132 1    
   133   67  133 1    
   134   69   70 1    
   135   69  134 1    
   136   69  135 1    
   137   70   71 1    
   138   71  136 1    
   139   71  137 1    
@<TRIPOS>SUBSTRUCTURE
     1 UNK         1 GROUP             0       ****    0 ROOT    
