@<TRIPOS>MOLECULE
3R137
137   139    1
SMALL
USER_CHARGES


@<TRIPOS>ATOM
      1 CA         27.5196   -6.6583   -1.2246 C.3       0 UNK        -0.2020 
      2 C          27.2172   -5.1691   -1.2772 C.2       0 UNK         0.4855 
      3 O          27.1721   -4.5976   -2.3649 O.2       0 UNK        -0.5197 
      4 N          26.9912   -4.5439   -0.1131 N.am      1 UNK        -0.4892 
      5 CA         26.7484   -3.1072    0.1288 C.3       1 UNK         0.0835 
      6 C6         27.8919   -2.1799   -0.3604 C.3       12 UNK        -0.0855 
      7 S7         29.5142   -2.6332    0.3393 S.3       12 UNK        -0.2931 
      8 C8         30.6150   -1.4989   -0.5761 C.3       12 UNK         0.0378 
      9 C9         30.7320   -1.7439   -2.0832 C.ar      12 UNK        -0.0802 
     10 C10        31.2673   -0.7250   -2.8770 C.ar      12 UNK        -0.0944 
     11 C11        31.4145   -0.8932   -4.2560 C.ar      12 UNK        -0.0787 
     12 C12        31.0316   -2.0987   -4.8464 C.ar      12 UNK        -0.0862 
     13 C13        30.4777   -3.1245   -4.0754 C.ar      12 UNK        -0.0733 
     14 C14        30.3444   -2.9452   -2.6949 C.ar      12 UNK        -0.0832 
     15 C15        30.0433   -4.4399   -4.7152 C.3       12 UNK         0.0240 
     16 S16        29.0797   -4.2324   -6.2517 S.3       12 UNK        -0.2522 
     17 C17        27.5485   -3.4424   -5.6501 C.3       12 UNK        -0.0967 
     18 CA         27.1463   -2.2225   -6.5204 C.3       5 UNK         0.0660 
     19 N          25.7001   -2.0065   -6.5184 N.am      5 UNK        -0.4015 
     20 C          24.9427   -1.8683   -7.6158 C.2       4 UNK         0.4946 
     21 O          25.3565   -2.0459   -8.7615 O.2       4 UNK        -0.5353 
     22 CA         23.4658   -1.4651   -7.4279 C.3       4 UNK         0.0277 
     23 CB         22.5478   -2.6791   -7.6484 C.3       4 UNK        -0.1981 
     24 N          23.1550   -0.8666   -6.1275 N.am      4 UNK        -0.4209 
     25 C          23.6739    0.2717   -5.6449 C.2       3 UNK         0.4942 
     26 O          24.4640    0.9847   -6.2612 O.2       3 UNK        -0.5208 
     27 CA         23.3127    0.6250   -4.1917 C.3       3 UNK         0.0250 
     28 CB         22.0342    1.4762   -4.1469 C.3       3 UNK        -0.1990 
     29 N          23.1578   -0.5482   -3.3190 N.am      3 UNK        -0.4232 
     30 C          24.0952   -1.4860   -3.1180 C.2       2 UNK         0.4993 
     31 O          25.1983   -1.4830   -3.6734 O.2       2 UNK        -0.5286 
     32 CA         23.7121   -2.6640   -2.2141 C.3       2 UNK         0.0209 
     33 CB         23.1473   -3.8165   -3.0604 C.3       2 UNK        -0.1931 
     34 N          24.8923   -3.1400   -1.4987 N.am      2 UNK        -0.4546 
     35 C          25.3885   -2.5872   -0.3878 C.2       1 UNK         0.5154 
     36 O          24.8130   -1.6930    0.2351 O.2       1 UNK        -0.5181 
     37 C          27.8554   -0.9300   -6.0769 C.2       5 UNK         0.5014 
     38 O          28.7652   -0.4723   -6.7685 O.2       5 UNK        -0.5248 
     39 N          27.4136   -0.3484   -4.9509 N.am      6 UNK        -0.4434 
     40 CA         28.0461    0.7970   -4.2927 C.3       6 UNK         0.0363 
     41 CB         27.3714    1.0467   -2.9354 C.3       6 UNK        -0.1936 
     42 C          28.0943    2.0881   -5.1268 C.2       6 UNK         0.5081 
     43 O          29.0681    2.8325   -5.0090 O.2       6 UNK        -0.5248 
     44 N          27.0637    2.3389   -5.9454 N.am      7 UNK        -0.4718 
     45 CA         26.9822    3.5111   -6.8237 C.3       7 UNK         0.0273 
     46 CB         25.5448    4.0606   -6.7913 C.3       7 UNK        -0.1935 
     47 C          27.4169    3.2055   -8.2692 C.2       7 UNK         0.5018 
     48 O          27.3773    4.1127   -9.1028 O.2       7 UNK        -0.5186 
     49 N          27.7958    1.9541   -8.5624 N.am      8 UNK        -0.4240 
     50 CA         28.2180    1.5104   -9.8911 C.3       8 UNK         0.0235 
     51 CB         27.8607    0.0228  -10.0536 C.3       8 UNK        -0.2000 
     52 C          29.7209    1.7374  -10.1150 C.2       8 UNK         0.4941 
     53 O          30.4655    2.0189   -9.1733 O.2       8 UNK        -0.5273 
     54 N          30.1540    1.5342  -11.3667 N.am      9 UNK        -0.4262 
     55 CA         31.5465    1.6220  -11.8283 C.3       9 UNK         0.0264 
     56 CB         31.5518    1.6855  -13.3664 C.3       9 UNK        -0.1955 
     57 C          32.4774    0.5001  -11.3138 C.2       9 UNK         0.5031 
     58 O          33.6306    0.4330  -11.7422 O.2       9 UNK        -0.5390 
     59 N          31.9811   -0.3545  -10.4078 N.am      10 UNK        -0.4204 
     60 CA         32.7345   -1.3838   -9.6882 C.3       10 UNK         0.0237 
     61 CB         31.7493   -2.2390   -8.8733 C.3       10 UNK        -0.1985 
     62 C          33.8356   -0.8093   -8.7756 C.2       10 UNK         0.4970 
     63 O          34.8335   -1.4932   -8.5444 O.2       10 UNK        -0.4914 
     64 N          33.6434    0.4266   -8.2990 N.am      11 UNK        -0.4285 
     65 CA         34.6349    1.2194   -7.5636 C.3       11 UNK         0.1007 
     66 C          35.0718    2.4343   -8.4209 C.2       11 UNK         0.5703 
     67 N          36.3283    2.8457   -8.3191 N.am      11 UNK        -0.7361 
     68 O          34.2779    3.0284   -9.1492 O.2       11 UNK        -0.4986 
     69 C69        34.0873    1.6890   -6.1924 C.3       12 UNK        -0.0947 
     70 S70        33.7667    0.2941   -5.0643 S.3       12 UNK        -0.2240 
     71 C71        31.9526    0.2410   -5.1115 C.3       12 UNK         0.0194 
     72 H72        28.4943   -6.8564   -1.6695 H         1 UNK         0.0906 
     73 H73        26.7693   -7.2129   -1.7874 H         1 UNK         0.0906 
     74 H74        27.5292   -7.0384   -0.2033 H         1 UNK         0.0906 
     75 H75        27.0150   -5.0991    0.7314 H         1 UNK         0.3140 
     76 H76        26.7001   -3.0088    1.2148 H         1 UNK         0.1085 
     77 H77        27.6886   -1.1445   -0.0792 H         1 UNK         0.0836 
     78 H78        27.9499   -2.1909   -1.4502 H         1 UNK         0.0836 
     79 H79        30.2747   -0.4773   -0.3985 H         1 UNK         0.0731 
     80 H80        31.6129   -1.5702   -0.1417 H         1 UNK         0.0731 
     81 H81        31.5690    0.2088   -2.4220 H         1 UNK         0.1312 
     82 H82        31.1425   -2.2299   -5.9128 H         1 UNK         0.1406 
     83 H83        29.9313   -3.7488   -2.1021 H         1 UNK         0.1631 
     84 H84        29.4521   -5.0343   -4.0164 H         1 UNK         0.0717 
     85 H85        30.9353   -5.0253   -4.9406 H         1 UNK         0.0717 
     86 H86        26.7699   -4.2058   -5.6903 H         1 UNK         0.0934 
     87 H87        27.6373   -3.1763   -4.5945 H         1 UNK         0.0934 
     88 H88        27.4706   -2.4199   -7.5446 H         1 UNK         0.0739 
     89 H89        25.2826   -1.8355   -5.6095 H         1 UNK         0.3093 
     90 H90        23.2401   -0.7191   -8.1929 H         1 UNK         0.0818 
     91 H91        22.7272   -3.1327   -8.6244 H         1 UNK         0.0819 
     92 H92        22.7118   -3.4515   -6.8958 H         1 UNK         0.0819 
     93 H93        21.4959   -2.3943   -7.6163 H         1 UNK         0.0819 
     94 H94        22.5184   -1.3806   -5.5365 H         1 UNK         0.3041 
     95 H95        24.1309    1.2253   -3.7918 H         1 UNK         0.0784 
     96 H96        22.1349    2.3633   -4.7742 H         1 UNK         0.0793 
     97 H97        21.1648    0.9220   -4.5030 H         1 UNK         0.0793 
     98 H98        21.8220    1.8215   -3.1348 H         1 UNK         0.0793 
     99 H99        22.2739   -0.6334   -2.8369 H         1 UNK         0.3024 
    100 H100       22.9564   -2.3414   -1.4940 H         1 UNK         0.1171 
    101 H101       23.8677   -4.1626   -3.8035 H         1 UNK         0.0786 
    102 H102       22.8768   -4.6688   -2.4366 H         1 UNK         0.0786 
    103 H103       22.2474   -3.5092   -3.5946 H         1 UNK         0.0786 
    104 H104       25.5036   -3.7850   -1.9930 H         1 UNK         0.2977 
    105 H105       26.6413   -0.7811   -4.4452 H         1 UNK         0.3127 
    106 H106       29.0790    0.5140   -4.0973 H         1 UNK         0.0770 
    107 H107       27.4119    0.1596   -2.3040 H         1 UNK         0.0814 
    108 H108       27.8696    1.8525   -2.3949 H         1 UNK         0.0814 
    109 H109       26.3257    1.3285   -3.0507 H         1 UNK         0.0814 
    110 H110       26.2830    1.6884   -5.9908 H         1 UNK         0.2983 
    111 H111       27.6433    4.2989   -6.4559 H         1 UNK         0.0947 
    112 H112       24.8385    3.3743   -7.2589 H         1 UNK         0.0806 
    113 H113       25.4773    5.0074   -7.3285 H         1 UNK         0.0806 
    114 H114       25.2103    4.2439   -5.7702 H         1 UNK         0.0806 
    115 H115       27.9081    1.2891   -7.8063 H         1 UNK         0.3000 
    116 H116       27.6728    2.0777  -10.6489 H         1 UNK         0.0850 
    117 H117       28.0719   -0.3331  -11.0624 H         1 UNK         0.0810 
    118 H118       26.7986   -0.1433   -9.8766 H         1 UNK         0.0810 
    119 H119       28.4178   -0.6106   -9.3631 H         1 UNK         0.0810 
    120 H120       29.4744    1.2832  -12.0712 H         1 UNK         0.3040 
    121 H121       31.9602    2.5598  -11.4507 H         1 UNK         0.0766 
    122 H122       31.1611    0.7683  -13.8087 H         1 UNK         0.0812 
    123 H123       32.5623    1.8278  -13.7520 H         1 UNK         0.0812 
    124 H124       30.9519    2.5189  -13.7326 H         1 UNK         0.0812 
    125 H125       31.0294   -0.2049  -10.1076 H         1 UNK         0.3205 
    126 H126       33.2215   -2.0228  -10.4276 H         1 UNK         0.0754 
    127 H127       31.1694   -1.6308   -8.1777 H         1 UNK         0.0769 
    128 H128       32.2737   -2.9967   -8.2889 H         1 UNK         0.0769 
    129 H129       31.0468   -2.7622   -9.5223 H         1 UNK         0.0769 
    130 H130       32.8161    0.9339   -8.5832 H         1 UNK         0.2981 
    131 H131       35.5258    0.6157   -7.3791 H         1 UNK         0.0541 
    132 H132       36.6267    3.6429   -8.8592 H         1 UNK         0.3459 
    133 H133       36.9851    2.3761   -7.7151 H         1 UNK         0.3459 
    134 H134       33.1802    2.2836   -6.3187 H         1 UNK         0.0612 
    135 H135       34.8101    2.3404   -5.6976 H         1 UNK         0.0612 
    136 H136       31.6165    0.1303   -6.1440 H         1 UNK         0.0624 
    137 H137       31.5514    1.1921   -4.7578 H         1 UNK         0.0624 
@<TRIPOS>BOND
     1    1    2 1    
     2    1   72 1    
     3    1   73 1    
     4    1   74 1    
     5    2    3 2    
     6    2    4 am   BACKBONE|DICT|INTERRES
     7    4    5 1    
     8    4   75 1    
     9    5    6 1    
    10    5   35 1    
    11    5   76 1    
    12    6    7 1    
    13    6   77 1    
    14    6   78 1    
    15    7    8 1    
    16    8    9 1    
    17    8   79 1    
    18    8   80 1    
    19    9   10 ar   
    20    9   14 ar   
    21   10   11 ar   
    22   10   81 1    
    23   11   12 ar   
    24   11   71 1    
    25   12   13 ar   
    26   12   82 1    
    27   13   14 ar   
    28   13   15 1    
    29   14   83 1    
    30   15   16 1    
    31   15   84 1    
    32   15   85 1    
    33   16   17 1    
    34   17   18 1    
    35   17   86 1    
    36   17   87 1    
    37   18   19 1    
    38   18   37 1    
    39   18   88 1    
    40   19   20 am   BACKBONE|DICT|INTERRES
    41   19   89 1    
    42   20   21 2    
    43   20   22 1    
    44   22   23 1    
    45   22   24 1    
    46   22   90 1    
    47   23   91 1    
    48   23   92 1    
    49   23   93 1    
    50   24   25 am   BACKBONE|DICT|INTERRES
    51   24   94 1    
    52   25   26 2    
    53   25   27 1    
    54   27   28 1    
    55   27   29 1    
    56   27   95 1    
    57   28   96 1    
    58   28   97 1    
    59   28   98 1    
    60   29   30 am   BACKBONE|DICT|INTERRES
    61   29   99 1    
    62   30   31 2    
    63   30   32 1    
    64   32   33 1    
    65   32   34 1    
    66   32  100 1    
    67   33  101 1    
    68   33  102 1    
    69   33  103 1    
    70   34   35 am   BACKBONE|DICT|INTERRES
    71   34  104 1    
    72   35   36 2    
    73   37   38 2    
    74   37   39 am   BACKBONE|DICT|INTERRES
    75   39   40 1    
    76   39  105 1    
    77   40   41 1    
    78   40   42 1    
    79   40  106 1    
    80   41  107 1    
    81   41  108 1    
    82   41  109 1    
    83   42   43 2    
    84   42   44 am   BACKBONE|DICT|INTERRES
    85   44   45 1    
    86   44  110 1    
    87   45   46 1    
    88   45   47 1    
    89   45  111 1    
    90   46  112 1    
    91   46  113 1    
    92   46  114 1    
    93   47   48 2    
    94   47   49 am   BACKBONE|DICT|INTERRES
    95   49   50 1    
    96   49  115 1    
    97   50   51 1    
    98   50   52 1    
    99   50  116 1    
   100   51  117 1    
   101   51  118 1    
   102   51  119 1    
   103   52   53 2    
   104   52   54 am   BACKBONE|DICT|INTERRES
   105   54   55 1    
   106   54  120 1    
   107   55   56 1    
   108   55   57 1    
   109   55  121 1    
   110   56  122 1    
   111   56  123 1    
   112   56  124 1    
   113   57   58 2    
   114   57   59 am   BACKBONE|DICT|INTERRES
   115   59   60 1    
   116   59  125 1    
   117   60   61 1    
   118   60   62 1    
   119   60  126 1    
   120   61  127 1    
   121   61  128 1    
   122   61  129 1    
   123   62   63 2    
   124   62   64 am   BACKBONE|DICT|INTERRES
   125   64   65 1    
   126   64  130 1    
   127   65   66 1    
   128   65   69 1    
   129   65  131 1    
   130   66   67 am   BACKBONE|DICT|INTERRES
   131   66   68 2    
   132   67  132 1    
   133   67  133 1    
   134   69   70 1    
   135   69  134 1    
   136   69  135 1    
   137   70   71 1    
   138   71  136 1    
   139   71  137 1    
@<TRIPOS>SUBSTRUCTURE
     1 UNK         1 GROUP             0       ****    0 ROOT    
