@<TRIPOS>MOLECULE
3R137
137   139    1
SMALL
USER_CHARGES


@<TRIPOS>ATOM
      1 CA         29.5560   -0.2028   -2.2419 C.3       0 UNK        -0.2020 
      2 C          28.8222   -1.1433   -1.2988 C.2       0 UNK         0.4855 
      3 O          28.2357   -0.6885   -0.3168 O.2       0 UNK        -0.5197 
      4 N          28.8411   -2.4474   -1.6075 N.am      1 UNK        -0.4892 
      5 CA         28.1822   -3.5403   -0.8714 C.3       1 UNK         0.0835 
      6 C6         28.8010   -3.8255    0.5246 C.3       12 UNK        -0.0855 
      7 S7         30.6183   -4.0534    0.5593 S.3       12 UNK        -0.2931 
      8 C8         30.9564   -5.2973   -0.7375 C.3       12 UNK         0.0378 
      9 C9         31.1458   -4.6649   -2.1125 C.ar      12 UNK        -0.0802 
     10 C10        32.1675   -3.7311   -2.3182 C.ar      12 UNK        -0.0944 
     11 C11        32.3325   -3.1224   -3.5647 C.ar      12 UNK        -0.0787 
     12 C12        31.4669   -3.4520   -4.6108 C.ar      12 UNK        -0.0862 
     13 C13        30.4323   -4.3703   -4.4166 C.ar      12 UNK        -0.0733 
     14 C14        30.2980   -4.9993   -3.1753 C.ar      12 UNK        -0.0832 
     15 C15        29.4470   -4.6666   -5.5396 C.3       12 UNK         0.0240 
     16 S16        27.8271   -3.8808   -5.2414 S.3       12 UNK        -0.2522 
     17 C17        28.2207   -2.1041   -5.3792 C.3       12 UNK        -0.0967 
     18 CA         27.5178   -1.4052   -6.5695 C.3       5 UNK         0.0660 
     19 N          26.0565   -1.5356   -6.5296 N.am      5 UNK        -0.4015 
     20 C          25.2296   -1.1807   -7.5253 C.2       4 UNK         0.4946 
     21 O          25.6108   -0.7199   -8.6005 O.2       4 UNK        -0.5353 
     22 CA         23.7188   -1.3233   -7.2702 C.3       4 UNK         0.0277 
     23 CB         23.2617   -2.7669   -7.5335 C.3       4 UNK        -0.1981 
     24 N          23.3213   -0.9203   -5.9195 N.am      4 UNK        -0.4209 
     25 C          23.4600    0.3161   -5.4180 C.2       3 UNK         0.4942 
     26 O          23.8829    1.2726   -6.0638 O.2       3 UNK        -0.5208 
     27 CA         23.1289    0.5097   -3.9275 C.3       3 UNK         0.0250 
     28 CB         21.6575    0.9168   -3.7519 C.3       3 UNK        -0.1990 
     29 N          23.4182   -0.6656   -3.0966 N.am      3 UNK        -0.4232 
     30 C          24.6185   -1.2525   -2.9961 C.2       2 UNK         0.4993 
     31 O          25.6232   -0.8711   -3.6075 O.2       2 UNK        -0.5286 
     32 CA         24.6918   -2.5058   -2.1177 C.3       2 UNK         0.0209 
     33 CB         23.9847   -3.6978   -2.7888 C.3       2 UNK        -0.1931 
     34 N          26.0971   -2.8292   -1.9220 N.am      2 UNK        -0.4546 
     35 C          26.6446   -3.3915   -0.8412 C.2       1 UNK         0.5154 
     36 O          25.9926   -3.7859    0.1278 O.2       1 UNK        -0.5181 
     37 C          27.9383    0.0745   -6.6220 C.2       5 UNK         0.5014 
     38 O          28.8418    0.4244   -7.3846 O.2       5 UNK        -0.5248 
     39 N          27.2627    0.9093   -5.8183 N.am      6 UNK        -0.4434 
     40 CA         27.4541    2.3582   -5.7779 C.3       6 UNK         0.0363 
     41 CB         26.7198    2.9443   -4.5615 C.3       6 UNK        -0.1936 
     42 C          27.0069    3.0430   -7.0800 C.2       6 UNK         0.5081 
     43 O          27.7500    3.8696   -7.6073 O.2       6 UNK        -0.5248 
     44 N          25.8258    2.6677   -7.5930 N.am      7 UNK        -0.4718 
     45 CA         25.2550    3.1751   -8.8453 C.3       7 UNK         0.0273 
     46 CB         23.8103    2.6739   -8.9980 C.3       7 UNK        -0.1935 
     47 C          26.0867    2.8071  -10.0841 C.2       7 UNK         0.5018 
     48 O          26.2605    3.6498  -10.9653 O.2       7 UNK        -0.5186 
     49 N          26.6071    1.5722  -10.1195 N.am      8 UNK        -0.4240 
     50 CA         27.5230    1.0931  -11.1581 C.3       8 UNK         0.0235 
     51 CB         27.5867   -0.4425  -11.1031 C.3       8 UNK        -0.2000 
     52 C          28.9423    1.6789  -11.0442 C.2       8 UNK         0.4941 
     53 O          29.6920    1.5977  -12.0179 O.2       8 UNK        -0.5273 
     54 N          29.2917    2.2193   -9.8647 N.am      9 UNK        -0.4262 
     55 CA         30.6251    2.6660   -9.4445 C.3       9 UNK         0.0264 
     56 CB         31.0705    3.9128  -10.2374 C.3       9 UNK        -0.1955 
     57 C          31.6405    1.5087   -9.4983 C.2       9 UNK         0.5031 
     58 O          32.7129    1.6442  -10.0907 O.2       9 UNK        -0.5390 
     59 N          31.2464    0.3687   -8.9137 N.am      10 UNK        -0.4204 
     60 CA         31.9727   -0.9008   -8.9788 C.3       10 UNK         0.0237 
     61 CB         31.0477   -2.0298   -8.4943 C.3       10 UNK        -0.1985 
     62 C          33.2952   -0.9086   -8.1938 C.2       10 UNK         0.4970 
     63 O          34.2140   -1.6329   -8.5793 O.2       10 UNK        -0.4914 
     64 N          33.3630   -0.1331   -7.1058 N.am      11 UNK        -0.4285 
     65 CA         34.5383   -0.0334   -6.2305 C.3       11 UNK         0.1007 
     66 C          35.6465    0.8634   -6.8417 C.2       11 UNK         0.5703 
     67 N          36.9101    0.5023   -6.6622 N.am      11 UNK        -0.7361 
     68 O          35.3737    1.9048   -7.4357 O.2       11 UNK        -0.4986 
     69 C69        34.1653    0.4410   -4.7990 C.3       12 UNK        -0.0947 
     70 S70        32.7466   -0.4455   -4.0707 S.3       12 UNK        -0.2240 
     71 C71        33.4389   -2.1054   -3.7932 C.3       12 UNK         0.0194 
     72 H72        28.8783    0.5689   -2.6067 H         1 UNK         0.0906 
     73 H73        29.9608   -0.7303   -3.1046 H         1 UNK         0.0906 
     74 H74        30.3824    0.2823   -1.7231 H         1 UNK         0.0906 
     75 H75        29.3903   -2.7522   -2.4006 H         1 UNK         0.3140 
     76 H76        28.3242   -4.4385   -1.4674 H         1 UNK         0.1085 
     77 H77        28.3527   -4.7215    0.9580 H         1 UNK         0.0836 
     78 H78        28.5594   -3.0113    1.2102 H         1 UNK         0.0836 
     79 H79        31.8713   -5.8305   -0.4754 H         1 UNK         0.0731 
     80 H80        30.1613   -6.0443   -0.7457 H         1 UNK         0.0731 
     81 H81        32.8259   -3.4712   -1.5003 H         1 UNK         0.1312 
     82 H82        31.5922   -2.9721   -5.5711 H         1 UNK         0.1406 
     83 H83        29.5082   -5.7249   -3.0333 H         1 UNK         0.1631 
     84 H84        29.3064   -5.7453   -5.6221 H         1 UNK         0.0717 
     85 H85        29.8381   -4.3347   -6.5027 H         1 UNK         0.0717 
     86 H86        27.9446   -1.6310   -4.4369 H         1 UNK         0.0934 
     87 H87        29.2999   -1.9768   -5.4628 H         1 UNK         0.0934 
     88 H88        27.8637   -1.8751   -7.4928 H         1 UNK         0.0739 
     89 H89        25.6649   -1.8469   -5.6515 H         1 UNK         0.3093 
     90 H90        23.2034   -0.6681   -7.9756 H         1 UNK         0.0818 
     91 H91        23.5319   -3.0822   -8.5424 H         1 UNK         0.0819 
     92 H92        23.7198   -3.4720   -6.8385 H         1 UNK         0.0819 
     93 H93        22.1793   -2.8630   -7.4459 H         1 UNK         0.0819 
     94 H94        22.9546   -1.6408   -5.3155 H         1 UNK         0.3041 
     95 H95        23.7550    1.3265   -3.5625 H         1 UNK         0.0784 
     96 H96        21.4247    1.8020   -4.3459 H         1 UNK         0.0793 
     97 H97        20.9772    0.1246   -4.0675 H         1 UNK         0.0793 
     98 H98        21.4334    1.1595   -2.7130 H         1 UNK         0.0793 
     99 H99        22.6445   -1.0448   -2.5690 H         1 UNK         0.3024 
    100 H100       24.2262   -2.2822   -1.1549 H         1 UNK         0.1171 
    101 H101       22.9235   -3.4978   -2.9414 H         1 UNK         0.0786 
    102 H102       24.4202   -3.9283   -3.7623 H         1 UNK         0.0786 
    103 H103       24.0554   -4.5950   -2.1735 H         1 UNK         0.0786 
    104 H104       26.7073   -2.4549   -2.6377 H         1 UNK         0.2977 
    105 H105       26.5432    0.5232   -5.2188 H         1 UNK         0.3127 
    106 H106       28.5222    2.5491   -5.6523 H         1 UNK         0.0770 
    107 H107       25.6429    2.7849   -4.6205 H         1 UNK         0.0814 
    108 H108       26.8855    4.0200   -4.4896 H         1 UNK         0.0814 
    109 H109       27.0736    2.4989   -3.6315 H         1 UNK         0.0814 
    110 H110       25.2449    2.0200   -7.0630 H         1 UNK         0.2983 
    111 H111       25.2321    4.2650   -8.7788 H         1 UNK         0.0947 
    112 H112       23.7638    1.5848   -9.0312 H         1 UNK         0.0806 
    113 H113       23.3598    3.0498   -9.9176 H         1 UNK         0.0806 
    114 H114       23.1852    3.0094   -8.1703 H         1 UNK         0.0806 
    115 H115       26.3546    0.9072   -9.3920 H         1 UNK         0.3000 
    116 H116       27.1239    1.3857  -12.1316 H         1 UNK         0.0850 
    117 H117       28.2370   -0.8378  -11.8846 H         1 UNK         0.0810 
    118 H118       26.6012   -0.8860  -11.2468 H         1 UNK         0.0810 
    119 H119       27.9752   -0.7935  -10.1459 H         1 UNK         0.0810 
    120 H120       28.5907    2.2287   -9.1346 H         1 UNK         0.3040 
    121 H121       30.5366    2.9537   -8.3956 H         1 UNK         0.0766 
    122 H122       31.2183    3.6923  -11.2949 H         1 UNK         0.0812 
    123 H123       32.0140    4.3012   -9.8523 H         1 UNK         0.0812 
    124 H124       30.3341    4.7127  -10.1607 H         1 UNK         0.0812 
    125 H125       30.3493    0.3628   -8.4281 H         1 UNK         0.3205 
    126 H126       32.2179   -1.0895  -10.0262 H         1 UNK         0.0754 
    127 H127       31.5566   -2.9945   -8.5175 H         1 UNK         0.0769 
    128 H128       30.1632   -2.1147   -9.1261 H         1 UNK         0.0769 
    129 H129       30.7111   -1.8588   -7.4722 H         1 UNK         0.0769 
    130 H130       32.5754    0.4494   -6.8673 H         1 UNK         0.2981 
    131 H131       34.9584   -1.0363   -6.1421 H         1 UNK         0.0541 
    132 H132       37.6428    1.0837   -7.0383 H         1 UNK         0.3459 
    133 H133       37.1474   -0.3419   -6.1647 H         1 UNK         0.3459 
    134 H134       33.9108    1.5026   -4.8061 H         1 UNK         0.0612 
    135 H135       35.0198    0.3372   -4.1280 H         1 UNK         0.0612 
    136 H136       34.1256   -2.0704   -2.9461 H         1 UNK         0.0624 
    137 H137       34.0222   -2.4241   -4.6562 H         1 UNK         0.0624 
@<TRIPOS>BOND
     1    1    2 1    
     2    1   72 1    
     3    1   73 1    
     4    1   74 1    
     5    2    3 2    
     6    2    4 am   BACKBONE|DICT|INTERRES
     7    4    5 1    
     8    4   75 1    
     9    5    6 1    
    10    5   35 1    
    11    5   76 1    
    12    6    7 1    
    13    6   77 1    
    14    6   78 1    
    15    7    8 1    
    16    8    9 1    
    17    8   79 1    
    18    8   80 1    
    19    9   10 ar   
    20    9   14 ar   
    21   10   11 ar   
    22   10   81 1    
    23   11   12 ar   
    24   11   71 1    
    25   12   13 ar   
    26   12   82 1    
    27   13   14 ar   
    28   13   15 1    
    29   14   83 1    
    30   15   16 1    
    31   15   84 1    
    32   15   85 1    
    33   16   17 1    
    34   17   18 1    
    35   17   86 1    
    36   17   87 1    
    37   18   19 1    
    38   18   37 1    
    39   18   88 1    
    40   19   20 am   BACKBONE|DICT|INTERRES
    41   19   89 1    
    42   20   21 2    
    43   20   22 1    
    44   22   23 1    
    45   22   24 1    
    46   22   90 1    
    47   23   91 1    
    48   23   92 1    
    49   23   93 1    
    50   24   25 am   BACKBONE|DICT|INTERRES
    51   24   94 1    
    52   25   26 2    
    53   25   27 1    
    54   27   28 1    
    55   27   29 1    
    56   27   95 1    
    57   28   96 1    
    58   28   97 1    
    59   28   98 1    
    60   29   30 am   BACKBONE|DICT|INTERRES
    61   29   99 1    
    62   30   31 2    
    63   30   32 1    
    64   32   33 1    
    65   32   34 1    
    66   32  100 1    
    67   33  101 1    
    68   33  102 1    
    69   33  103 1    
    70   34   35 am   BACKBONE|DICT|INTERRES
    71   34  104 1    
    72   35   36 2    
    73   37   38 2    
    74   37   39 am   BACKBONE|DICT|INTERRES
    75   39   40 1    
    76   39  105 1    
    77   40   41 1    
    78   40   42 1    
    79   40  106 1    
    80   41  107 1    
    81   41  108 1    
    82   41  109 1    
    83   42   43 2    
    84   42   44 am   BACKBONE|DICT|INTERRES
    85   44   45 1    
    86   44  110 1    
    87   45   46 1    
    88   45   47 1    
    89   45  111 1    
    90   46  112 1    
    91   46  113 1    
    92   46  114 1    
    93   47   48 2    
    94   47   49 am   BACKBONE|DICT|INTERRES
    95   49   50 1    
    96   49  115 1    
    97   50   51 1    
    98   50   52 1    
    99   50  116 1    
   100   51  117 1    
   101   51  118 1    
   102   51  119 1    
   103   52   53 2    
   104   52   54 am   BACKBONE|DICT|INTERRES
   105   54   55 1    
   106   54  120 1    
   107   55   56 1    
   108   55   57 1    
   109   55  121 1    
   110   56  122 1    
   111   56  123 1    
   112   56  124 1    
   113   57   58 2    
   114   57   59 am   BACKBONE|DICT|INTERRES
   115   59   60 1    
   116   59  125 1    
   117   60   61 1    
   118   60   62 1    
   119   60  126 1    
   120   61  127 1    
   121   61  128 1    
   122   61  129 1    
   123   62   63 2    
   124   62   64 am   BACKBONE|DICT|INTERRES
   125   64   65 1    
   126   64  130 1    
   127   65   66 1    
   128   65   69 1    
   129   65  131 1    
   130   66   67 am   BACKBONE|DICT|INTERRES
   131   66   68 2    
   132   67  132 1    
   133   67  133 1    
   134   69   70 1    
   135   69  134 1    
   136   69  135 1    
   137   70   71 1    
   138   71  136 1    
   139   71  137 1    
@<TRIPOS>SUBSTRUCTURE
     1 UNK         1 GROUP             0       ****    0 ROOT    
