@<TRIPOS>MOLECULE
3R137
137   139    1
SMALL
USER_CHARGES


@<TRIPOS>ATOM
      1 CA         26.8005   -8.5182   -4.0666 C.3       0 UNK        -0.2020 
      2 C          27.1805   -7.6066   -2.9093 C.2       0 UNK         0.4855 
      3 O          27.7635   -8.0706   -1.9292 O.2       0 UNK        -0.5197 
      4 N          26.8535   -6.3155   -3.0134 N.am      1 UNK        -0.4892 
      5 CA         27.0895   -5.2874   -2.0021 C.3       1 UNK         0.0835 
      6 C6         28.5602   -4.7995   -2.0038 C.3       12 UNK        -0.0855 
      7 S7         29.0709   -4.1060   -0.3978 S.3       12 UNK        -0.2931 
      8 C8         30.7927   -3.6340   -0.7626 C.3       12 UNK         0.0378 
      9 C9         30.8576   -2.5056   -1.7809 C.ar      12 UNK        -0.0802 
     10 C10        31.2669   -2.7522   -3.0936 C.ar      12 UNK        -0.0944 
     11 C11        31.2933   -1.7189   -4.0355 C.ar      12 UNK        -0.0787 
     12 C12        30.8960   -0.4304   -3.6610 C.ar      12 UNK        -0.0862 
     13 C13        30.4873   -0.1741   -2.3475 C.ar      12 UNK        -0.0733 
     14 C14        30.4861   -1.2123   -1.4113 C.ar      12 UNK        -0.0832 
     15 C15        30.0258    1.2108   -1.9220 C.3       12 UNK         0.0240 
     16 S16        28.2571    1.1823   -1.4892 S.3       12 UNK        -0.2522 
     17 C17        27.5062    2.3201   -2.6969 C.3       12 UNK        -0.0967 
     18 CA         27.6719    1.9231   -4.1866 C.3       5 UNK         0.0660 
     19 N          27.2808    0.5379   -4.4730 N.am      5 UNK        -0.4015 
     20 C          27.5841   -0.1024   -5.6151 C.2       4 UNK         0.4946 
     21 O          28.2665    0.3950   -6.5110 O.2       4 UNK        -0.5353 
     22 CA         26.9956   -1.5111   -5.8336 C.3       4 UNK         0.0277 
     23 CB         27.9692   -2.5745   -5.3105 C.3       4 UNK        -0.1981 
     24 N          25.6829   -1.7064   -5.2139 N.am      4 UNK        -0.4209 
     25 C          24.6070   -0.9368   -5.4354 C.2       3 UNK         0.4942 
     26 O          24.5710   -0.0564   -6.2946 O.2       3 UNK        -0.5208 
     27 CA         23.3925   -1.1160   -4.5057 C.3       3 UNK         0.0250 
     28 CB         22.2761   -1.8854   -5.2284 C.3       3 UNK        -0.1990 
     29 N          23.6871   -1.7786   -3.2297 N.am      3 UNK        -0.4232 
     30 C          24.5981   -1.3984   -2.3198 C.2       2 UNK         0.4993 
     31 O          25.3066   -0.3981   -2.4384 O.2       2 UNK        -0.5286 
     32 CA         24.7714   -2.3125   -1.0909 C.3       2 UNK         0.0209 
     33 CB         23.4551   -3.0013   -0.6682 C.3       2 UNK        -0.1931 
     34 N          25.8337   -3.3239   -1.2256 N.am      2 UNK        -0.4546 
     35 C          26.0690   -4.1587   -2.2500 C.2       1 UNK         0.5154 
     36 O          25.5062   -4.0902   -3.3482 O.2       1 UNK        -0.5181 
     37 C          26.9078    2.9333   -5.0663 C.2       5 UNK         0.5014 
     38 O          27.4846    3.9504   -5.4518 O.2       5 UNK        -0.5248 
     39 N          25.6293    2.6462   -5.3566 N.am      6 UNK        -0.4434 
     40 CA         24.7728    3.4654   -6.2167 C.3       6 UNK         0.0363 
     41 CB         23.2945    3.1346   -5.9531 C.3       6 UNK        -0.1936 
     42 C          25.1230    3.2852   -7.7013 C.2       6 UNK         0.5081 
     43 O          25.0983    4.2629   -8.4492 O.2       6 UNK        -0.5248 
     44 N          25.4694    2.0499   -8.0938 N.am      7 UNK        -0.4718 
     45 CA         26.0075    1.7186   -9.4157 C.3       7 UNK         0.0273 
     46 CB         26.0822    0.1919   -9.5759 C.3       7 UNK        -0.1935 
     47 C          27.3861    2.3564   -9.6574 C.2       7 UNK         0.5018 
     48 O          27.6424    2.8403  -10.7607 O.2       7 UNK        -0.5186 
     49 N          28.2364    2.3482   -8.6187 N.am      8 UNK        -0.4240 
     50 CA         29.5717    2.9474   -8.4965 C.3       8 UNK         0.0235 
     51 CB         29.5294    4.4745   -8.6918 C.3       8 UNK        -0.2000 
     52 C          30.6436    2.2989   -9.3849 C.2       8 UNK         0.4941 
     53 O          31.7142    1.9574   -8.8820 O.2       8 UNK        -0.5273 
     54 N          30.3345    2.0915  -10.6714 N.am      9 UNK        -0.4262 
     55 CA         31.1993    1.4965  -11.6991 C.3       9 UNK         0.0264 
     56 CB         30.4602    1.5269  -13.0468 C.3       9 UNK        -0.1955 
     57 C          31.6913    0.0695  -11.3872 C.2       9 UNK         0.5031 
     58 O          32.6687   -0.3752  -11.9905 O.2       9 UNK        -0.5390 
     59 N          31.0262   -0.6099  -10.4433 N.am      10 UNK        -0.4204 
     60 CA         31.4314   -1.8931   -9.8735 C.3       10 UNK         0.0237 
     61 CB         30.2999   -2.4163   -8.9710 C.3       10 UNK        -0.1985 
     62 C          32.7608   -1.8332   -9.0949 C.2       10 UNK         0.4970 
     63 O          33.4624   -2.8451   -9.0626 O.2       10 UNK        -0.4914 
     64 N          33.0792   -0.6787   -8.4886 N.am      11 UNK        -0.4285 
     65 CA         34.2970   -0.4585   -7.6867 C.3       11 UNK         0.1007 
     66 C          35.0809    0.8236   -8.0803 C.2       11 UNK         0.5703 
     67 N          34.4871    1.8053   -8.7463 N.am      11 UNK        -0.7361 
     68 O          36.2716    0.9207   -7.7918 O.2       11 UNK        -0.4986 
     69 C69        34.0049   -0.4891   -6.1608 C.3       12 UNK        -0.0947 
     70 S70        33.5383   -2.1545   -5.5849 S.3       12 UNK        -0.2240 
     71 C71        31.7298   -2.0171   -5.4603 C.3       12 UNK         0.0194 
     72 H72        26.3020   -7.9734   -4.8682 H         1 UNK         0.0906 
     73 H73        27.6914   -8.9897   -4.4807 H         1 UNK         0.0906 
     74 H74        26.1285   -9.3034   -3.7210 H         1 UNK         0.0906 
     75 H75        26.3202   -5.9724   -3.8052 H         1 UNK         0.3140 
     76 H76        26.8543   -5.7290   -1.0306 H         1 UNK         0.1085 
     77 H77        28.7338   -4.0756   -2.7991 H         1 UNK         0.0836 
     78 H78        29.2338   -5.6322   -2.2122 H         1 UNK         0.0836 
     79 H79        31.3437   -4.5086   -1.1123 H         1 UNK         0.0731 
     80 H80        31.2775   -3.3158    0.1615 H         1 UNK         0.0731 
     81 H81        31.5595   -3.7510   -3.3880 H         1 UNK         0.1312 
     82 H82        30.8972    0.3663   -4.3924 H         1 UNK         0.1406 
     83 H83        30.1590   -1.0196   -0.3981 H         1 UNK         0.1631 
     84 H84        30.2284    1.9521   -2.6953 H         1 UNK         0.0717 
     85 H85        30.5962    1.5239   -1.0465 H         1 UNK         0.0717 
     86 H86        26.4467    2.3891   -2.4404 H         1 UNK         0.0934 
     87 H87        27.9211    3.3151   -2.5223 H         1 UNK         0.0934 
     88 H88        28.7271    2.0187   -4.4483 H         1 UNK         0.0739 
     89 H89        26.7107    0.0775   -3.7679 H         1 UNK         0.3093 
     90 H90        26.8700   -1.6586   -6.9074 H         1 UNK         0.0818 
     91 H91        28.2051   -2.4098   -4.2589 H         1 UNK         0.0819 
     92 H92        27.5654   -3.5815   -5.4171 H         1 UNK         0.0819 
     93 H93        28.9062   -2.5412   -5.8653 H         1 UNK         0.0819 
     94 H94        25.6108   -2.4344   -4.5091 H         1 UNK         0.3041 
     95 H95        23.0235   -0.1156   -4.2709 H         1 UNK         0.0784 
     96 H96        22.0144   -1.4014   -6.1707 H         1 UNK         0.0793 
     97 H97        22.5768   -2.9082   -5.4595 H         1 UNK         0.0793 
     98 H98        21.3681   -1.9284   -4.6265 H         1 UNK         0.0793 
     99 H99        23.2001   -2.6465   -3.0586 H         1 UNK         0.3024 
    100 H100       25.0724   -1.6530   -0.2746 H         1 UNK         0.1171 
    101 H101       23.5600   -3.4733    0.3089 H         1 UNK         0.0786 
    102 H102       22.6393   -2.2812   -0.5866 H         1 UNK         0.0786 
    103 H103       23.1472   -3.7756   -1.3718 H         1 UNK         0.0786 
    104 H104       26.4242   -3.4278   -0.4107 H         1 UNK         0.2977 
    105 H105       25.2474    1.7615   -5.0516 H         1 UNK         0.3127 
    106 H106       24.9329    4.5155   -5.9617 H         1 UNK         0.0770 
    107 H107       23.0528    2.1032   -6.2103 H         1 UNK         0.0814 
    108 H108       22.6434    3.7765   -6.5480 H         1 UNK         0.0814 
    109 H109       23.0330    3.2903   -4.9064 H         1 UNK         0.0814 
    110 H110       25.3692    1.2876   -7.4283 H         1 UNK         0.2983 
    111 H111       25.3202    2.1124  -10.1677 H         1 UNK         0.0947 
    112 H112       26.4196   -0.0782  -10.5774 H         1 UNK         0.0806 
    113 H113       25.1068   -0.2715   -9.4253 H         1 UNK         0.0806 
    114 H114       26.7781   -0.2558   -8.8664 H         1 UNK         0.0806 
    115 H115       27.9549    1.8149   -7.7998 H         1 UNK         0.3000 
    116 H116       29.8731    2.7613   -7.4640 H         1 UNK         0.0850 
    117 H117       30.5084    4.9174   -8.5046 H         1 UNK         0.0810 
    118 H118       28.8255    4.9385   -8.0002 H         1 UNK         0.0810 
    119 H119       29.2359    4.7518   -9.7046 H         1 UNK         0.0810 
    120 H120       29.4075    2.3933  -10.9673 H         1 UNK         0.3040 
    121 H121       32.0869    2.1273  -11.7787 H         1 UNK         0.0766 
    122 H122       31.0827    1.1205  -13.8454 H         1 UNK         0.0812 
    123 H123       30.1958    2.5455  -13.3317 H         1 UNK         0.0812 
    124 H124       29.5424    0.9383  -13.0157 H         1 UNK         0.0812 
    125 H125       30.2318   -0.1556  -10.0182 H         1 UNK         0.3205 
    126 H126       31.5674   -2.5964  -10.6978 H         1 UNK         0.0754 
    127 H127       30.0590   -1.7130   -8.1728 H         1 UNK         0.0769 
    128 H128       30.5770   -3.3616   -8.5020 H         1 UNK         0.0769 
    129 H129       29.3890   -2.5957   -9.5425 H         1 UNK         0.0769 
    130 H130       32.4727    0.1266   -8.5980 H         1 UNK         0.2981 
    131 H131       35.0014   -1.2659   -7.8962 H         1 UNK         0.0541 
    132 H132       33.4825    1.8066   -8.9058 H         1 UNK         0.3459 
    133 H133       35.0291    2.6159   -8.9979 H         1 UNK         0.3459 
    134 H134       33.2303    0.2332   -5.8973 H         1 UNK         0.0612 
    135 H135       34.8915   -0.2014   -5.5926 H         1 UNK         0.0612 
    136 H136       31.2925   -2.9628   -5.7828 H         1 UNK         0.0624 
    137 H137       31.3560   -1.2585   -6.1490 H         1 UNK         0.0624 
@<TRIPOS>BOND
     1    1    2 1    
     2    1   72 1    
     3    1   73 1    
     4    1   74 1    
     5    2    3 2    
     6    2    4 am   BACKBONE|DICT|INTERRES
     7    4    5 1    
     8    4   75 1    
     9    5    6 1    
    10    5   35 1    
    11    5   76 1    
    12    6    7 1    
    13    6   77 1    
    14    6   78 1    
    15    7    8 1    
    16    8    9 1    
    17    8   79 1    
    18    8   80 1    
    19    9   10 ar   
    20    9   14 ar   
    21   10   11 ar   
    22   10   81 1    
    23   11   12 ar   
    24   11   71 1    
    25   12   13 ar   
    26   12   82 1    
    27   13   14 ar   
    28   13   15 1    
    29   14   83 1    
    30   15   16 1    
    31   15   84 1    
    32   15   85 1    
    33   16   17 1    
    34   17   18 1    
    35   17   86 1    
    36   17   87 1    
    37   18   19 1    
    38   18   37 1    
    39   18   88 1    
    40   19   20 am   BACKBONE|DICT|INTERRES
    41   19   89 1    
    42   20   21 2    
    43   20   22 1    
    44   22   23 1    
    45   22   24 1    
    46   22   90 1    
    47   23   91 1    
    48   23   92 1    
    49   23   93 1    
    50   24   25 am   BACKBONE|DICT|INTERRES
    51   24   94 1    
    52   25   26 2    
    53   25   27 1    
    54   27   28 1    
    55   27   29 1    
    56   27   95 1    
    57   28   96 1    
    58   28   97 1    
    59   28   98 1    
    60   29   30 am   BACKBONE|DICT|INTERRES
    61   29   99 1    
    62   30   31 2    
    63   30   32 1    
    64   32   33 1    
    65   32   34 1    
    66   32  100 1    
    67   33  101 1    
    68   33  102 1    
    69   33  103 1    
    70   34   35 am   BACKBONE|DICT|INTERRES
    71   34  104 1    
    72   35   36 2    
    73   37   38 2    
    74   37   39 am   BACKBONE|DICT|INTERRES
    75   39   40 1    
    76   39  105 1    
    77   40   41 1    
    78   40   42 1    
    79   40  106 1    
    80   41  107 1    
    81   41  108 1    
    82   41  109 1    
    83   42   43 2    
    84   42   44 am   BACKBONE|DICT|INTERRES
    85   44   45 1    
    86   44  110 1    
    87   45   46 1    
    88   45   47 1    
    89   45  111 1    
    90   46  112 1    
    91   46  113 1    
    92   46  114 1    
    93   47   48 2    
    94   47   49 am   BACKBONE|DICT|INTERRES
    95   49   50 1    
    96   49  115 1    
    97   50   51 1    
    98   50   52 1    
    99   50  116 1    
   100   51  117 1    
   101   51  118 1    
   102   51  119 1    
   103   52   53 2    
   104   52   54 am   BACKBONE|DICT|INTERRES
   105   54   55 1    
   106   54  120 1    
   107   55   56 1    
   108   55   57 1    
   109   55  121 1    
   110   56  122 1    
   111   56  123 1    
   112   56  124 1    
   113   57   58 2    
   114   57   59 am   BACKBONE|DICT|INTERRES
   115   59   60 1    
   116   59  125 1    
   117   60   61 1    
   118   60   62 1    
   119   60  126 1    
   120   61  127 1    
   121   61  128 1    
   122   61  129 1    
   123   62   63 2    
   124   62   64 am   BACKBONE|DICT|INTERRES
   125   64   65 1    
   126   64  130 1    
   127   65   66 1    
   128   65   69 1    
   129   65  131 1    
   130   66   67 am   BACKBONE|DICT|INTERRES
   131   66   68 2    
   132   67  132 1    
   133   67  133 1    
   134   69   70 1    
   135   69  134 1    
   136   69  135 1    
   137   70   71 1    
   138   71  136 1    
   139   71  137 1    
@<TRIPOS>SUBSTRUCTURE
     1 UNK         1 GROUP             0       ****    0 ROOT    
