@<TRIPOS>MOLECULE
3R137
137   139    1
SMALL
USER_CHARGES


@<TRIPOS>ATOM
      1 CA         27.3221   -7.6225   -1.8964 C.3       0 UNK        -0.2020 
      2 C          27.6966   -6.7874   -3.1174 C.2       0 UNK         0.4855 
      3 O          27.7558   -7.3241   -4.2218 O.2       0 UNK        -0.5197 
      4 N          27.9525   -5.4822   -2.9786 N.am      1 UNK        -0.4892 
      5 CA         27.8838   -4.6820   -1.7582 C.3       1 UNK         0.0835 
      6 C6         29.2445   -4.6749   -1.0144 C.3       12 UNK        -0.0855 
      7 S7         29.1936   -3.8048    0.5940 S.3       12 UNK        -0.2931 
      8 C8         30.7550   -2.8542    0.5878 C.3       12 UNK         0.0378 
      9 C9         30.8976   -1.9701   -0.6444 C.ar      12 UNK        -0.0802 
     10 C10        31.9261   -2.2031   -1.5618 C.ar      12 UNK        -0.0944 
     11 C11        32.0120   -1.4523   -2.7372 C.ar      12 UNK        -0.0787 
     12 C12        31.0655   -0.4553   -2.9890 C.ar      12 UNK        -0.0862 
     13 C13        30.0431   -0.1966   -2.0672 C.ar      12 UNK        -0.0733 
     14 C14        29.9745   -0.9516   -0.8925 C.ar      12 UNK        -0.0832 
     15 C15        28.9353    0.8075   -2.3567 C.3       12 UNK         0.0240 
     16 S16        29.4474    2.2743   -3.3044 S.3       12 UNK        -0.2522 
     17 C17        27.8118    2.8368   -3.8853 C.3       12 UNK        -0.0967 
     18 CA         27.5225    2.3844   -5.3370 C.3       5 UNK         0.0660 
     19 N          27.5769    0.9299   -5.5104 N.am      5 UNK        -0.4015 
     20 C          27.6692    0.3106   -6.6938 C.2       4 UNK         0.4946 
     21 O          27.6894    0.8976   -7.7738 O.2       4 UNK        -0.5353 
     22 CA         27.6776   -1.2252   -6.6673 C.3       4 UNK         0.0277 
     23 CB         29.0518   -1.7557   -6.2246 C.3       4 UNK        -0.1981 
     24 N          26.6238   -1.7681   -5.8050 N.am      4 UNK        -0.4209 
     25 C          25.3104   -1.6028   -6.0359 C.2       3 UNK         0.4942 
     26 O          24.8617   -1.0265   -7.0258 O.2       3 UNK        -0.5208 
     27 CA         24.3192   -2.1259   -4.9799 C.3       3 UNK         0.0250 
     28 CB         23.8599   -3.5476   -5.3400 C.3       3 UNK        -0.1990 
     29 N          24.8334   -2.1194   -3.6097 N.am      3 UNK        -0.4232 
     30 C          25.3311   -1.0602   -2.9556 C.2       2 UNK         0.4993 
     31 O          25.3786    0.0803   -3.4228 O.2       2 UNK        -0.5286 
     32 CA         25.9308   -1.3372   -1.5636 C.3       2 UNK         0.0209 
     33 CB         24.8710   -1.1009   -0.4764 C.3       2 UNK        -0.1931 
     34 N          26.5185   -2.6753   -1.3835 N.am      2 UNK        -0.4546 
     35 C          27.4108   -3.2798   -2.1859 C.2       1 UNK         0.5154 
     36 O          27.8242   -2.7972   -3.2449 O.2       1 UNK        -0.5181 
     37 C          26.1833    2.9557   -5.8346 C.2       5 UNK         0.5014 
     38 O          26.1808    4.0336   -6.4290 O.2       5 UNK        -0.5248 
     39 N          25.0813    2.2142   -5.6354 N.am      6 UNK        -0.4434 
     40 CA         23.7557    2.5466   -6.1710 C.3       6 UNK         0.0363 
     41 CB         22.7074    1.5775   -5.6039 C.3       6 UNK        -0.1936 
     42 C          23.7159    2.5521   -7.7118 C.2       6 UNK         0.5081 
     43 O          23.0688    3.4197   -8.2981 O.2       6 UNK        -0.5248 
     44 N          24.4375    1.6122   -8.3379 N.am      7 UNK        -0.4718 
     45 CA         24.6431    1.5338   -9.7878 C.3       7 UNK         0.0273 
     46 CB         25.0292    0.0898  -10.1512 C.3       7 UNK        -0.1935 
     47 C          25.7048    2.5195  -10.3179 C.2       7 UNK         0.5018 
     48 O          25.8476    2.6342  -11.5361 O.2       7 UNK        -0.5186 
     49 N          26.4348    3.1891   -9.4122 N.am      8 UNK        -0.4240 
     50 CA         27.5761    4.0809   -9.6526 C.3       8 UNK         0.0235 
     51 CB         27.1364    5.3547  -10.4059 C.3       8 UNK        -0.2000 
     52 C          28.7694    3.3612  -10.3148 C.2       8 UNK         0.4941 
     53 O          29.4373    3.9378  -11.1762 O.2       8 UNK        -0.5273 
     54 N          29.0141    2.1143   -9.8975 N.am      9 UNK        -0.4262 
     55 CA         30.1084    1.2587  -10.3457 C.3       9 UNK         0.0264 
     56 CB         29.5260   -0.1228  -10.6932 C.3       9 UNK        -0.1955 
     57 C          31.1607    1.1249   -9.2351 C.2       9 UNK         0.5031 
     58 O          30.8643    1.3648   -8.0618 O.2       9 UNK        -0.5390 
     59 N          32.3679    0.7065   -9.6268 N.am      10 UNK        -0.4204 
     60 CA         33.4480    0.3227   -8.7188 C.3       10 UNK         0.0237 
     61 CB         34.7785    0.8704   -9.2629 C.3       10 UNK        -0.1985 
     62 C          33.5004   -1.2080   -8.6177 C.2       10 UNK         0.4970 
     63 O          33.1415   -1.8954   -9.5776 O.2       10 UNK        -0.4914 
     64 N          33.9795   -1.7107   -7.4749 N.am      11 UNK        -0.4285 
     65 CA         34.1720   -3.1492   -7.2208 C.3       11 UNK         0.1007 
     66 C          35.4162   -3.7676   -7.9259 C.2       11 UNK         0.5703 
     67 N          36.3165   -2.9827   -8.5070 N.am      11 UNK        -0.7361 
     68 O          35.5619   -4.9875   -7.9540 O.2       11 UNK        -0.4986 
     69 C69        34.1782   -3.4691   -5.7035 C.3       12 UNK        -0.0947 
     70 S70        32.5972   -3.0624   -4.8897 S.3       12 UNK        -0.2240 
     71 C71        33.1103   -1.7463   -3.7454 C.3       12 UNK         0.0194 
     72 H72        27.3511   -8.6848   -2.1384 H         1 UNK         0.0906 
     73 H73        28.0111   -7.4571   -1.0696 H         1 UNK         0.0906 
     74 H74        26.3118   -7.3839   -1.5655 H         1 UNK         0.0906 
     75 H75        28.1641   -4.9262   -3.7986 H         1 UNK         0.3140 
     76 H76        27.1215   -5.0973   -1.0964 H         1 UNK         0.1085 
     77 H77        30.0151   -4.2538   -1.6606 H         1 UNK         0.0836 
     78 H78        29.5672   -5.6971   -0.8148 H         1 UNK         0.0836 
     79 H79        31.5901   -3.5526    0.6628 H         1 UNK         0.0731 
     80 H80        30.7952   -2.2311    1.4822 H         1 UNK         0.0731 
     81 H81        32.6424   -2.9930   -1.3808 H         1 UNK         0.1312 
     82 H82        31.1135    0.0980   -3.9167 H         1 UNK         0.1406 
     83 H83        29.1697   -0.7861   -0.1888 H         1 UNK         0.1631 
     84 H84        28.4727    1.1476   -1.4288 H         1 UNK         0.0717 
     85 H85        28.1697    0.2759   -2.9181 H         1 UNK         0.0717 
     86 H86        27.0328    2.4896   -3.2029 H         1 UNK         0.0934 
     87 H87        27.8002    3.9269   -3.8223 H         1 UNK         0.0934 
     88 H88        28.3020    2.8101   -5.9739 H         1 UNK         0.0739 
     89 H89        27.4919    0.3698   -4.6759 H         1 UNK         0.3093 
     90 H90        27.4904   -1.5738   -7.6853 H         1 UNK         0.0818 
     91 H91        29.8470   -1.3572   -6.8569 H         1 UNK         0.0819 
     92 H92        29.0987   -2.8426   -6.2910 H         1 UNK         0.0819 
     93 H93        29.2849   -1.4769   -5.1962 H         1 UNK         0.0819 
     94 H94        26.9232   -2.2285   -4.9500 H         1 UNK         0.3041 
     95 H95        23.4464   -1.4719   -4.9970 H         1 UNK         0.0784 
     96 H96        23.4485   -3.5803   -6.3501 H         1 UNK         0.0793 
     97 H97        24.6845   -4.2607   -5.3006 H         1 UNK         0.0793 
     98 H98        23.0792   -3.8971   -4.6641 H         1 UNK         0.0793 
     99 H99        24.8486   -3.0086   -3.1327 H         1 UNK         0.3024 
    100 H100       26.7285   -0.6143   -1.4045 H         1 UNK         0.1171 
    101 H101       25.3031   -1.1691    0.5222 H         1 UNK         0.0786 
    102 H102       24.4317   -0.1062   -0.5680 H         1 UNK         0.0786 
    103 H103       24.0568   -1.8238   -0.5412 H         1 UNK         0.0786 
    104 H104       26.2508   -3.1545   -0.5352 H         1 UNK         0.2977 
    105 H105       25.1602    1.3612   -5.0910 H         1 UNK         0.3127 
    106 H106       23.5077    3.5537   -5.8288 H         1 UNK         0.0770 
    107 H107       22.8537    0.5646   -5.9770 H         1 UNK         0.0814 
    108 H108       21.7014    1.8848   -5.8925 H         1 UNK         0.0814 
    109 H109       22.7382    1.5451   -4.5145 H         1 UNK         0.0814 
    110 H110       24.8831    0.8877   -7.7828 H         1 UNK         0.2983 
    111 H111       23.7019    1.7729  -10.2876 H         1 UNK         0.0947 
    112 H112       25.1497   -0.0269  -11.2290 H         1 UNK         0.0806 
    113 H113       24.2638   -0.6179   -9.8323 H         1 UNK         0.0806 
    114 H114       25.9702   -0.2035   -9.6838 H         1 UNK         0.0806 
    115 H115       26.2311    3.0099   -8.4371 H         1 UNK         0.3000 
    116 H116       27.9259    4.3896   -8.6663 H         1 UNK         0.0850 
    117 H117       27.9519    6.0769  -10.4604 H         1 UNK         0.0810 
    118 H118       26.3038    5.8450   -9.9015 H         1 UNK         0.0810 
    119 H119       26.8286    5.1359  -11.4287 H         1 UNK         0.0810 
    120 H120       28.4665    1.7368   -9.1219 H         1 UNK         0.3040 
    121 H121       30.5845    1.6788  -11.2342 H         1 UNK         0.0766 
    122 H122       28.7687   -0.0469  -11.4737 H         1 UNK         0.0812 
    123 H123       29.0624   -0.5932   -9.8247 H         1 UNK         0.0812 
    124 H124       30.3002   -0.7999  -11.0566 H         1 UNK         0.0812 
    125 H125       32.5041    0.4617  -10.5978 H         1 UNK         0.3205 
    126 H126       33.2789    0.7398   -7.7235 H         1 UNK         0.0754 
    127 H127       35.6055    0.6308   -8.5933 H         1 UNK         0.0769 
    128 H128       34.7477    1.9559   -9.3599 H         1 UNK         0.0769 
    129 H129       35.0191    0.4544  -10.2424 H         1 UNK         0.0769 
    130 H130       34.2712   -1.0856   -6.7389 H         1 UNK         0.2981 
    131 H131       33.3144   -3.6713   -7.6502 H         1 UNK         0.0541 
    132 H132       36.2100   -1.9819   -8.4940 H         1 UNK         0.3459 
    133 H133       37.1125   -3.4003   -8.9628 H         1 UNK         0.3459 
    134 H134       34.3494   -4.5344   -5.5371 H         1 UNK         0.0612 
    135 H135       35.0018   -2.9516   -5.2087 H         1 UNK         0.0612 
    136 H136       33.3613   -0.8486   -4.3123 H         1 UNK         0.0624 
    137 H137       34.0172   -2.0490   -3.2195 H         1 UNK         0.0624 
@<TRIPOS>BOND
     1    1    2 1    
     2    1   72 1    
     3    1   73 1    
     4    1   74 1    
     5    2    3 2    
     6    2    4 am   BACKBONE|DICT|INTERRES
     7    4    5 1    
     8    4   75 1    
     9    5    6 1    
    10    5   35 1    
    11    5   76 1    
    12    6    7 1    
    13    6   77 1    
    14    6   78 1    
    15    7    8 1    
    16    8    9 1    
    17    8   79 1    
    18    8   80 1    
    19    9   10 ar   
    20    9   14 ar   
    21   10   11 ar   
    22   10   81 1    
    23   11   12 ar   
    24   11   71 1    
    25   12   13 ar   
    26   12   82 1    
    27   13   14 ar   
    28   13   15 1    
    29   14   83 1    
    30   15   16 1    
    31   15   84 1    
    32   15   85 1    
    33   16   17 1    
    34   17   18 1    
    35   17   86 1    
    36   17   87 1    
    37   18   19 1    
    38   18   37 1    
    39   18   88 1    
    40   19   20 am   BACKBONE|DICT|INTERRES
    41   19   89 1    
    42   20   21 2    
    43   20   22 1    
    44   22   23 1    
    45   22   24 1    
    46   22   90 1    
    47   23   91 1    
    48   23   92 1    
    49   23   93 1    
    50   24   25 am   BACKBONE|DICT|INTERRES
    51   24   94 1    
    52   25   26 2    
    53   25   27 1    
    54   27   28 1    
    55   27   29 1    
    56   27   95 1    
    57   28   96 1    
    58   28   97 1    
    59   28   98 1    
    60   29   30 am   BACKBONE|DICT|INTERRES
    61   29   99 1    
    62   30   31 2    
    63   30   32 1    
    64   32   33 1    
    65   32   34 1    
    66   32  100 1    
    67   33  101 1    
    68   33  102 1    
    69   33  103 1    
    70   34   35 am   BACKBONE|DICT|INTERRES
    71   34  104 1    
    72   35   36 2    
    73   37   38 2    
    74   37   39 am   BACKBONE|DICT|INTERRES
    75   39   40 1    
    76   39  105 1    
    77   40   41 1    
    78   40   42 1    
    79   40  106 1    
    80   41  107 1    
    81   41  108 1    
    82   41  109 1    
    83   42   43 2    
    84   42   44 am   BACKBONE|DICT|INTERRES
    85   44   45 1    
    86   44  110 1    
    87   45   46 1    
    88   45   47 1    
    89   45  111 1    
    90   46  112 1    
    91   46  113 1    
    92   46  114 1    
    93   47   48 2    
    94   47   49 am   BACKBONE|DICT|INTERRES
    95   49   50 1    
    96   49  115 1    
    97   50   51 1    
    98   50   52 1    
    99   50  116 1    
   100   51  117 1    
   101   51  118 1    
   102   51  119 1    
   103   52   53 2    
   104   52   54 am   BACKBONE|DICT|INTERRES
   105   54   55 1    
   106   54  120 1    
   107   55   56 1    
   108   55   57 1    
   109   55  121 1    
   110   56  122 1    
   111   56  123 1    
   112   56  124 1    
   113   57   58 2    
   114   57   59 am   BACKBONE|DICT|INTERRES
   115   59   60 1    
   116   59  125 1    
   117   60   61 1    
   118   60   62 1    
   119   60  126 1    
   120   61  127 1    
   121   61  128 1    
   122   61  129 1    
   123   62   63 2    
   124   62   64 am   BACKBONE|DICT|INTERRES
   125   64   65 1    
   126   64  130 1    
   127   65   66 1    
   128   65   69 1    
   129   65  131 1    
   130   66   67 am   BACKBONE|DICT|INTERRES
   131   66   68 2    
   132   67  132 1    
   133   67  133 1    
   134   69   70 1    
   135   69  134 1    
   136   69  135 1    
   137   70   71 1    
   138   71  136 1    
   139   71  137 1    
@<TRIPOS>SUBSTRUCTURE
     1 UNK         1 GROUP             0       ****    0 ROOT    
