@<TRIPOS>MOLECULE
3R137
137   139    1
SMALL
USER_CHARGES


@<TRIPOS>ATOM
      1 CA         26.5415    3.0774    1.1532 C.3       0 UNK        -0.2020 
      2 C          26.8471    2.1569   -0.0190 C.2       0 UNK         0.4855 
      3 O          26.0580    2.0831   -0.9602 O.2       0 UNK        -0.5197 
      4 N          27.9895    1.4602    0.0265 N.am      1 UNK        -0.4892 
      5 CA         28.4103    0.4800   -0.9782 C.3       1 UNK         0.0835 
      6 C6         29.9273    0.1875   -0.8561 C.3       12 UNK        -0.0855 
      7 S7         30.6246   -0.5177   -2.3841 S.3       12 UNK        -0.2931 
      8 C8         31.0214   -2.2107   -1.8411 C.3       12 UNK         0.0378 
      9 C9         31.1513   -3.1435   -3.0336 C.ar      12 UNK        -0.0802 
     10 C10        32.3695   -3.7463   -3.3619 C.ar      12 UNK        -0.0944 
     11 C11        32.4637   -4.5938   -4.4734 C.ar      12 UNK        -0.0787 
     12 C12        31.3244   -4.8419   -5.2470 C.ar      12 UNK        -0.0862 
     13 C13        30.1114   -4.2191   -4.9429 C.ar      12 UNK        -0.0733 
     14 C14        30.0289   -3.3931   -3.8220 C.ar      12 UNK        -0.0832 
     15 C15        28.9037   -4.3962   -5.8488 C.3       12 UNK         0.0240 
     16 S16        28.8983   -3.1348   -7.1607 S.3       12 UNK        -0.2522 
     17 C17        28.5335   -1.6113   -6.2191 C.3       12 UNK        -0.0967 
     18 CA         27.6144   -0.6563   -7.0070 C.3       5 UNK         0.0660 
     19 N          26.3159   -1.2751   -7.2965 N.am      5 UNK        -0.4015 
     20 C          25.3386   -0.7682   -8.0557 C.2       4 UNK         0.4946 
     21 O          25.4039    0.3349   -8.5990 O.2       4 UNK        -0.5353 
     22 CA         24.0547   -1.6042   -8.2031 C.3       4 UNK         0.0277 
     23 CB         24.2460   -2.7489   -9.2173 C.3       4 UNK        -0.1981 
     24 N          23.5091   -2.0801   -6.9215 N.am      4 UNK        -0.4209 
     25 C          24.0377   -2.9650   -6.0636 C.2       3 UNK         0.4942 
     26 O          25.0624   -3.6172   -6.2789 O.2       3 UNK        -0.5208 
     27 CA         23.3179   -3.1076   -4.7103 C.3       3 UNK         0.0250 
     28 CB         22.4851   -4.3992   -4.6798 C.3       3 UNK        -0.1990 
     29 N          24.2394   -3.0979   -3.5666 N.am      3 UNK        -0.4232 
     30 C          25.1695   -2.1637   -3.3191 C.2       2 UNK         0.4993 
     31 O          25.3682   -1.1814   -4.0407 O.2       2 UNK        -0.5286 
     32 CA         26.0253   -2.3595   -2.0588 C.3       2 UNK         0.0209 
     33 CB         26.7501   -3.7213   -2.0563 C.3       2 UNK        -0.1931 
     34 N          26.9852   -1.2582   -1.9786 N.am      2 UNK        -0.4546 
     35 C          27.5523   -0.7992   -0.8578 C.2       1 UNK         0.5154 
     36 O          27.4176   -1.3351    0.2455 O.2       1 UNK        -0.5181 
     37 C          27.5034    0.7153   -6.3068 C.2       5 UNK         0.5014 
     38 O          28.3876    1.5504   -6.4834 O.2       5 UNK        -0.5248 
     39 N          26.4050    0.9674   -5.5817 N.am      6 UNK        -0.4434 
     40 CA         26.0387    2.2818   -5.0441 C.3       6 UNK         0.0363 
     41 CB         24.7350    2.1504   -4.2415 C.3       6 UNK        -0.1936 
     42 C          25.8976    3.3846   -6.1162 C.2       6 UNK         0.5081 
     43 O          26.1116    4.5546   -5.7969 O.2       6 UNK        -0.5248 
     44 N          25.5564    3.0018   -7.3556 N.am      7 UNK        -0.4718 
     45 CA         25.4880    3.8884   -8.5187 C.3       7 UNK         0.0273 
     46 CB         24.1409    3.6835   -9.2315 C.3       7 UNK        -0.1935 
     47 C          26.6518    3.6337   -9.4905 C.2       7 UNK         0.5018 
     48 O          27.2191    4.5936  -10.0127 O.2       7 UNK        -0.5186 
     49 N          26.9847    2.3561   -9.7266 N.am      8 UNK        -0.4240 
     50 CA         27.9954    1.9141  -10.6957 C.3       8 UNK         0.0235 
     51 CB         27.7011    0.4554  -11.0886 C.3       8 UNK        -0.2000 
     52 C          29.4578    2.0703  -10.2298 C.2       8 UNK         0.4941 
     53 O          30.3540    1.8719  -11.0515 O.2       8 UNK        -0.5273 
     54 N          29.6635    2.4185   -8.9512 N.am      9 UNK        -0.4262 
     55 CA         30.9174    2.5060   -8.1908 C.3       9 UNK         0.0264 
     56 CB         32.0497    3.2229   -8.9558 C.3       9 UNK        -0.1955 
     57 C          31.3569    1.1339   -7.6527 C.2       9 UNK         0.5031 
     58 O          31.0064    0.0938   -8.2183 O.2       9 UNK        -0.5390 
     59 N          32.1059    1.1694   -6.5403 N.am      10 UNK        -0.4204 
     60 CA         32.5822    0.0077   -5.7847 C.3       10 UNK         0.0237 
     61 CB         33.4280    0.4815   -4.5910 C.3       10 UNK        -0.1985 
     62 C          33.3749   -0.9737   -6.6604 C.2       10 UNK         0.4970 
     63 O          34.4081   -0.5949   -7.2171 O.2       10 UNK        -0.4914 
     64 N          32.8520   -2.1985   -6.7691 N.am      11 UNK        -0.4285 
     65 CA         33.3752   -3.2968   -7.5939 C.3       11 UNK         0.1007 
     66 C          33.2775   -3.0582   -9.1320 C.2       11 UNK         0.5703 
     67 N          32.5146   -2.0814   -9.6112 N.am      11 UNK        -0.7361 
     68 O          33.8773   -3.7943   -9.9125 O.2       11 UNK        -0.4986 
     69 C69        34.7784   -3.8071   -7.1450 C.3       12 UNK        -0.0947 
     70 S70        35.0374   -3.9916   -5.3415 S.3       12 UNK        -0.2240 
     71 C71        33.7980   -5.2319   -4.8410 C.3       12 UNK         0.0194 
     72 H72        25.6063    2.7816    1.6277 H         1 UNK         0.0906 
     73 H73        26.4371    4.1048    0.8056 H         1 UNK         0.0906 
     74 H74        27.3273    3.0531    1.9080 H         1 UNK         0.0906 
     75 H75        28.5808    1.5328    0.8425 H         1 UNK         0.3140 
     76 H76        28.2284    0.9293   -1.9580 H         1 UNK         0.1085 
     77 H77        30.1455   -0.4500    0.0032 H         1 UNK         0.0836 
     78 H78        30.4687    1.1178   -0.6757 H         1 UNK         0.0836 
     79 H79        31.9384   -2.1954   -1.2500 H         1 UNK         0.0731 
     80 H80        30.2316   -2.5864   -1.1884 H         1 UNK         0.0731 
     81 H81        33.2483   -3.5501   -2.7628 H         1 UNK         0.1312 
     82 H82        31.3864   -5.4934   -6.1079 H         1 UNK         0.1406 
     83 H83        29.0996   -2.9045   -3.5724 H         1 UNK         0.1631 
     84 H84        27.9737   -4.3424   -5.2810 H         1 UNK         0.0717 
     85 H85        28.9237   -5.3852   -6.3087 H         1 UNK         0.0717 
     86 H86        28.0611   -1.8635   -5.2694 H         1 UNK         0.0934 
     87 H87        29.4833   -1.1294   -5.9815 H         1 UNK         0.0934 
     88 H88        28.0927   -0.4610   -7.9679 H         1 UNK         0.0739 
     89 H89        26.1486   -2.1888   -6.8814 H         1 UNK         0.3093 
     90 H90        23.2968   -0.9343   -8.6130 H         1 UNK         0.0818 
     91 H91        24.5457   -2.3567  -10.1901 H         1 UNK         0.0819 
     92 H92        25.0167   -3.4541   -8.9049 H         1 UNK         0.0819 
     93 H93        23.3212   -3.3067   -9.3638 H         1 UNK         0.0819 
     94 H94        22.6719   -1.5976   -6.6237 H         1 UNK         0.3041 
     95 H95        22.6433   -2.2587   -4.5813 H         1 UNK         0.0784 
     96 H96        21.7726   -4.4252   -5.5057 H         1 UNK         0.0793 
     97 H97        23.1153   -5.2856   -4.7660 H         1 UNK         0.0793 
     98 H98        21.9109   -4.4824   -3.7568 H         1 UNK         0.0793 
     99 H99        24.1671   -3.8812   -2.9344 H         1 UNK         0.3024 
    100 H100       25.3597   -2.3009   -1.1943 H         1 UNK         0.1171 
    101 H101       26.0535   -4.5312   -1.8383 H         1 UNK         0.0786 
    102 H102       27.2008   -3.9440   -3.0220 H         1 UNK         0.0786 
    103 H103       27.5332   -3.7656   -1.2992 H         1 UNK         0.0786 
    104 H104       27.0581   -0.7251   -2.8366 H         1 UNK         0.2977 
    105 H105       25.7810    0.1954   -5.3625 H         1 UNK         0.3127 
    106 H106       26.8331    2.5895   -4.3609 H         1 UNK         0.0770 
    107 H107       23.9101    1.8035   -4.8649 H         1 UNK         0.0814 
    108 H108       24.4424    3.1092   -3.8114 H         1 UNK         0.0814 
    109 H109       24.8483    1.4504   -3.4135 H         1 UNK         0.0814 
    110 H110       25.4166    2.0129   -7.5380 H         1 UNK         0.2983 
    111 H111       25.5461    4.9332   -8.2055 H         1 UNK         0.0947 
    112 H112       24.0604    4.3284  -10.1077 H         1 UNK         0.0806 
    113 H113       23.3061    3.9255   -8.5737 H         1 UNK         0.0806 
    114 H114       24.0121    2.6543   -9.5697 H         1 UNK         0.0806 
    115 H115       26.4350    1.6210   -9.2836 H         1 UNK         0.3000 
    116 H116       27.8873    2.5268  -11.5934 H         1 UNK         0.0850 
    117 H117       28.3810    0.1163  -11.8713 H         1 UNK         0.0810 
    118 H118       26.6865    0.3434  -11.4715 H         1 UNK         0.0810 
    119 H119       27.8166   -0.2234  -10.2444 H         1 UNK         0.0810 
    120 H120       28.8411    2.4623   -8.3607 H         1 UNK         0.3040 
    121 H121       30.6674    3.1220   -7.3253 H         1 UNK         0.0766 
    122 H122       32.4562    2.6041   -9.7562 H         1 UNK         0.0812 
    123 H123       32.8786    3.4623   -8.2891 H         1 UNK         0.0812 
    124 H124       31.7051    4.1597   -9.3936 H         1 UNK         0.0812 
    125 H125       32.3590    2.0718   -6.1657 H         1 UNK         0.3205 
    126 H126       31.7030   -0.5023   -5.3867 H         1 UNK         0.0754 
    127 H127       33.7659   -0.3686   -3.9961 H         1 UNK         0.0769 
    128 H128       32.8539    1.1289   -3.9278 H         1 UNK         0.0769 
    129 H129       34.3147    1.0288   -4.9136 H         1 UNK         0.0769 
    130 H130       31.9935   -2.4064   -6.2799 H         1 UNK         0.2981 
    131 H131       32.6826   -4.1194   -7.4361 H         1 UNK         0.0541 
    132 H132       32.4542   -1.9518  -10.6078 H         1 UNK         0.3459 
    133 H133       32.0078   -1.4544   -8.9932 H         1 UNK         0.3459 
    134 H134       35.5501   -3.1256   -7.5067 H         1 UNK         0.0612 
    135 H135       34.9918   -4.7706   -7.6109 H         1 UNK         0.0612 
    136 H136       33.6810   -5.9725   -5.6336 H         1 UNK         0.0624 
    137 H137       34.1779   -5.7706   -3.9719 H         1 UNK         0.0624 
@<TRIPOS>BOND
     1    1    2 1    
     2    1   72 1    
     3    1   73 1    
     4    1   74 1    
     5    2    3 2    
     6    2    4 am   BACKBONE|DICT|INTERRES
     7    4    5 1    
     8    4   75 1    
     9    5    6 1    
    10    5   35 1    
    11    5   76 1    
    12    6    7 1    
    13    6   77 1    
    14    6   78 1    
    15    7    8 1    
    16    8    9 1    
    17    8   79 1    
    18    8   80 1    
    19    9   10 ar   
    20    9   14 ar   
    21   10   11 ar   
    22   10   81 1    
    23   11   12 ar   
    24   11   71 1    
    25   12   13 ar   
    26   12   82 1    
    27   13   14 ar   
    28   13   15 1    
    29   14   83 1    
    30   15   16 1    
    31   15   84 1    
    32   15   85 1    
    33   16   17 1    
    34   17   18 1    
    35   17   86 1    
    36   17   87 1    
    37   18   19 1    
    38   18   37 1    
    39   18   88 1    
    40   19   20 am   BACKBONE|DICT|INTERRES
    41   19   89 1    
    42   20   21 2    
    43   20   22 1    
    44   22   23 1    
    45   22   24 1    
    46   22   90 1    
    47   23   91 1    
    48   23   92 1    
    49   23   93 1    
    50   24   25 am   BACKBONE|DICT|INTERRES
    51   24   94 1    
    52   25   26 2    
    53   25   27 1    
    54   27   28 1    
    55   27   29 1    
    56   27   95 1    
    57   28   96 1    
    58   28   97 1    
    59   28   98 1    
    60   29   30 am   BACKBONE|DICT|INTERRES
    61   29   99 1    
    62   30   31 2    
    63   30   32 1    
    64   32   33 1    
    65   32   34 1    
    66   32  100 1    
    67   33  101 1    
    68   33  102 1    
    69   33  103 1    
    70   34   35 am   BACKBONE|DICT|INTERRES
    71   34  104 1    
    72   35   36 2    
    73   37   38 2    
    74   37   39 am   BACKBONE|DICT|INTERRES
    75   39   40 1    
    76   39  105 1    
    77   40   41 1    
    78   40   42 1    
    79   40  106 1    
    80   41  107 1    
    81   41  108 1    
    82   41  109 1    
    83   42   43 2    
    84   42   44 am   BACKBONE|DICT|INTERRES
    85   44   45 1    
    86   44  110 1    
    87   45   46 1    
    88   45   47 1    
    89   45  111 1    
    90   46  112 1    
    91   46  113 1    
    92   46  114 1    
    93   47   48 2    
    94   47   49 am   BACKBONE|DICT|INTERRES
    95   49   50 1    
    96   49  115 1    
    97   50   51 1    
    98   50   52 1    
    99   50  116 1    
   100   51  117 1    
   101   51  118 1    
   102   51  119 1    
   103   52   53 2    
   104   52   54 am   BACKBONE|DICT|INTERRES
   105   54   55 1    
   106   54  120 1    
   107   55   56 1    
   108   55   57 1    
   109   55  121 1    
   110   56  122 1    
   111   56  123 1    
   112   56  124 1    
   113   57   58 2    
   114   57   59 am   BACKBONE|DICT|INTERRES
   115   59   60 1    
   116   59  125 1    
   117   60   61 1    
   118   60   62 1    
   119   60  126 1    
   120   61  127 1    
   121   61  128 1    
   122   61  129 1    
   123   62   63 2    
   124   62   64 am   BACKBONE|DICT|INTERRES
   125   64   65 1    
   126   64  130 1    
   127   65   66 1    
   128   65   69 1    
   129   65  131 1    
   130   66   67 am   BACKBONE|DICT|INTERRES
   131   66   68 2    
   132   67  132 1    
   133   67  133 1    
   134   69   70 1    
   135   69  134 1    
   136   69  135 1    
   137   70   71 1    
   138   71  136 1    
   139   71  137 1    
@<TRIPOS>SUBSTRUCTURE
     1 UNK         1 GROUP             0       ****    0 ROOT    
