@<TRIPOS>MOLECULE
3R137
137   139    1
SMALL
USER_CHARGES


@<TRIPOS>ATOM
      1 CA         30.8859   -4.1253   -0.9889 C.3       0 UNK        -0.2020 
      2 C          29.9108   -3.2083   -0.2676 C.2       0 UNK         0.4855 
      3 O          29.4382   -3.5435    0.8185 O.2       0 UNK        -0.5197 
      4 N          29.6096   -2.0487   -0.8650 N.am      1 UNK        -0.4892 
      5 CA         28.7217   -1.0140   -0.3134 C.3       1 UNK         0.0835 
      6 C6         28.8559    0.3482   -1.0484 C.3       12 UNK        -0.0855 
      7 S7         30.5755    0.8646   -1.3856 S.3       12 UNK        -0.2931 
      8 C8         30.6345    0.7600   -3.2049 C.3       12 UNK         0.0378 
      9 C9         30.7021   -0.6795   -3.6949 C.ar      12 UNK        -0.0802 
     10 C10        31.9433   -1.2964   -3.8792 C.ar      12 UNK        -0.0944 
     11 C11        32.0182   -2.6198   -4.3226 C.ar      12 UNK        -0.0787 
     12 C12        30.8396   -3.3322   -4.5621 C.ar      12 UNK        -0.0862 
     13 C13        29.5946   -2.7222   -4.3993 C.ar      12 UNK        -0.0733 
     14 C14        29.5308   -1.3911   -3.9771 C.ar      12 UNK        -0.0832 
     15 C15        28.3247   -3.5099   -4.6804 C.3       12 UNK         0.0240 
     16 S16        27.9690   -3.5887   -6.4610 S.3       12 UNK        -0.2522 
     17 C17        27.4561   -1.8726   -6.8027 C.3       12 UNK        -0.0967 
     18 CA         26.0818   -1.8107   -7.5106 C.3       5 UNK         0.0660 
     19 N          24.9976   -2.3254   -6.6745 N.am      5 UNK        -0.4015 
     20 C          23.8569   -2.8412   -7.1530 C.2       4 UNK         0.4946 
     21 O          23.6243   -2.9774   -8.3557 O.2       4 UNK        -0.5353 
     22 CA         22.7901   -3.2859   -6.1351 C.3       4 UNK         0.0277 
     23 CB         22.8887   -4.8004   -5.8885 C.3       4 UNK        -0.1981 
     24 N          22.8618   -2.5867   -4.8499 N.am      4 UNK        -0.4209 
     25 C          22.6283   -1.2793   -4.6632 C.2       3 UNK         0.4942 
     26 O          22.2832   -0.5131   -5.5632 O.2       3 UNK        -0.5208 
     27 CA         22.8060   -0.7260   -3.2354 C.3       3 UNK         0.0250 
     28 CB         21.4369   -0.4307   -2.6002 C.3       3 UNK        -0.1990 
     29 N          23.5724   -1.5970   -2.3345 N.am      3 UNK        -0.4232 
     30 C          24.8781   -1.8685   -2.4600 C.2       2 UNK         0.4993 
     31 O          25.5785   -1.4567   -3.3888 O.2       2 UNK        -0.5286 
     32 CA         25.4868   -2.8044   -1.4046 C.3       2 UNK         0.0209 
     33 CB         25.4500   -4.2630   -1.8914 C.3       2 UNK        -0.1931 
     34 N          26.8710   -2.4213   -1.1324 N.am      2 UNK        -0.4546 
     35 C          27.2351   -1.4339   -0.3023 C.2       1 UNK         0.5154 
     36 O          26.4443   -0.8357    0.4295 O.2       1 UNK        -0.5181 
     37 C          25.7378   -0.3766   -7.9455 C.2       5 UNK         0.5014 
     38 O          26.1167    0.5766   -7.2629 O.2       5 UNK        -0.5248 
     39 N          25.0402   -0.2425   -9.0820 N.am      6 UNK        -0.4434 
     40 CA         24.6484    1.0395   -9.6841 C.3       6 UNK         0.0363 
     41 CB         23.7515    0.7727  -10.9035 C.3       6 UNK        -0.1936 
     42 C          25.8369    1.9408  -10.0758 C.2       6 UNK         0.5081 
     43 O          25.6802    3.1606  -10.1276 O.2       6 UNK        -0.5248 
     44 N          27.0054    1.3301  -10.3173 N.am      7 UNK        -0.4718 
     45 CA         28.2789    2.0101  -10.5674 C.3       7 UNK         0.0273 
     46 CB         29.2111    1.0412  -11.3121 C.3       7 UNK        -0.1935 
     47 C          28.9516    2.5532   -9.2873 C.2       7 UNK         0.5018 
     48 O          29.9463    3.2723   -9.4012 O.2       7 UNK        -0.5186 
     49 N          28.4107    2.2133   -8.1049 N.am      8 UNK        -0.4240 
     50 CA         28.8233    2.6573   -6.7705 C.3       8 UNK         0.0235 
     51 CB         28.4060    4.1297   -6.5509 C.3       8 UNK        -0.2000 
     52 C          30.3094    2.3677   -6.4896 C.2       8 UNK         0.4941 
     53 O          30.7131    1.2056   -6.5440 O.2       8 UNK        -0.5273 
     54 N          31.0954    3.4180   -6.2098 N.am      9 UNK        -0.4262 
     55 CA         32.5208    3.3831   -5.8589 C.3       9 UNK         0.0264 
     56 CB         33.0011    4.8188   -5.5898 C.3       9 UNK        -0.1955 
     57 C          33.4425    2.6936   -6.8829 C.2       9 UNK         0.5031 
     58 O          34.5485    2.2969   -6.5132 O.2       9 UNK        -0.5390 
     59 N          32.9829    2.5432   -8.1327 N.am      10 UNK        -0.4204 
     60 CA         33.6669    1.7795   -9.1766 C.3       10 UNK         0.0237 
     61 CB         33.0843    2.1666  -10.5437 C.3       10 UNK        -0.1985 
     62 C          33.6086    0.2512   -8.9712 C.2       10 UNK         0.4970 
     63 O          34.3623   -0.4508   -9.6474 O.2       10 UNK        -0.4914 
     64 N          32.7457   -0.2407   -8.0657 N.am      11 UNK        -0.4285 
     65 CA         32.5377   -1.6678   -7.7697 C.3       11 UNK         0.1007 
     66 C          31.8835   -2.4299   -8.9658 C.2       11 UNK         0.5703 
     67 N          32.0391   -3.7428   -9.0592 N.am      11 UNK        -0.7361 
     68 O          31.1889   -1.8443   -9.7950 O.2       11 UNK        -0.4986 
     69 C69        33.8284   -2.3174   -7.1723 C.3       12 UNK        -0.0947 
     70 S70        33.5744   -3.8725   -6.2485 S.3       12 UNK        -0.2240 
     71 C71        33.3682   -3.2879   -4.5360 C.3       12 UNK         0.0194 
     72 H72        30.3453   -4.8378   -1.6113 H         1 UNK         0.0906 
     73 H73        31.5678   -3.5598   -1.6229 H         1 UNK         0.0906 
     74 H74        31.4857   -4.6839   -0.2708 H         1 UNK         0.0906 
     75 H75        30.0547   -1.8089   -1.7424 H         1 UNK         0.3140 
     76 H76        29.0144   -0.8617    0.7280 H         1 UNK         0.1085 
     77 H77        28.3953    1.1323   -0.4441 H         1 UNK         0.0836 
     78 H78        28.2938    0.3471   -1.9833 H         1 UNK         0.0836 
     79 H79        31.5130    1.3031   -3.5528 H         1 UNK         0.0731 
     80 H80        29.7740    1.2730   -3.6366 H         1 UNK         0.0731 
     81 H81        32.8508   -0.7432   -3.6790 H         1 UNK         0.1312 
     82 H82        30.8927   -4.3589   -4.8981 H         1 UNK         0.1406 
     83 H83        28.5671   -0.9151   -3.8592 H         1 UNK         0.1631 
     84 H84        27.4742   -3.0730   -4.1594 H         1 UNK         0.0717 
     85 H85        28.4309   -4.5252   -4.2955 H         1 UNK         0.0717 
     86 H86        27.4262   -1.2963   -5.8772 H         1 UNK         0.0934 
     87 H87        28.2327   -1.4139   -7.4188 H         1 UNK         0.0934 
     88 H88        26.1571   -2.4236   -8.4121 H         1 UNK         0.0739 
     89 H89        25.1037   -2.2027   -5.6762 H         1 UNK         0.3093 
     90 H90        21.8137   -3.0724   -6.5755 H         1 UNK         0.0818 
     91 H91        23.8392   -5.0744   -5.4284 H         1 UNK         0.0819 
     92 H92        22.0860   -5.1514   -5.2397 H         1 UNK         0.0819 
     93 H93        22.8096   -5.3539   -6.8254 H         1 UNK         0.0819 
     94 H94        23.1216   -3.1386   -4.0464 H         1 UNK         0.3041 
     95 H95        23.3500    0.2168   -3.3267 H         1 UNK         0.0784 
     96 H96        20.8523    0.2450   -3.2265 H         1 UNK         0.0793 
     97 H97        20.8491   -1.3397   -2.4659 H         1 UNK         0.0793 
     98 H98        21.5448    0.0482   -1.6268 H         1 UNK         0.0793 
     99 H99        23.0647   -1.9896   -1.5540 H         1 UNK         0.3024 
    100 H100       24.9086   -2.7293   -0.4803 H         1 UNK         0.1171 
    101 H101       25.9785   -4.3947   -2.8357 H         1 UNK         0.0786 
    102 H102       24.4234   -4.5982   -2.0450 H         1 UNK         0.0786 
    103 H103       25.9005   -4.9348   -1.1604 H         1 UNK         0.0786 
    104 H104       27.5850   -2.8355   -1.7118 H         1 UNK         0.2977 
    105 H105       24.7200   -1.0818   -9.5481 H         1 UNK         0.3127 
    106 H106       24.0627    1.5844   -8.9406 H         1 UNK         0.0770 
    107 H107       24.2760    0.2073  -11.6749 H         1 UNK         0.0814 
    108 H108       23.4187    1.7084  -11.3552 H         1 UNK         0.0814 
    109 H109       22.8575    0.2143  -10.6250 H         1 UNK         0.0814 
    110 H110       27.0323    0.3220  -10.2695 H         1 UNK         0.2983 
    111 H111       28.0884    2.8662  -11.2186 H         1 UNK         0.0947 
    112 H112       30.0873    1.5649  -11.6923 H         1 UNK         0.0806 
    113 H113       28.7167    0.5919  -12.1736 H         1 UNK         0.0806 
    114 H114       29.5606    0.2353  -10.6653 H         1 UNK         0.0806 
    115 H115       27.6007    1.6017   -8.1068 H         1 UNK         0.3000 
    116 H116       28.2625    2.0467   -6.0609 H         1 UNK         0.0850 
    117 H117       28.6255    4.4597   -5.5345 H         1 UNK         0.0810 
    118 H118       27.3321    4.2513   -6.6950 H         1 UNK         0.0810 
    119 H119       28.9047    4.8090   -7.2435 H         1 UNK         0.0810 
    120 H120       30.6666    4.3322   -6.2235 H         1 UNK         0.3040 
    121 H121       32.6106    2.8182   -4.9304 H         1 UNK         0.0766 
    122 H122       32.4360    5.2835   -4.7816 H         1 UNK         0.0812 
    123 H123       32.9047    5.4486   -6.4752 H         1 UNK         0.0812 
    124 H124       34.0514    4.8317   -5.2943 H         1 UNK         0.0812 
    125 H125       32.0565    2.8894   -8.3528 H         1 UNK         0.3205 
    126 H126       34.7214    2.0635   -9.1687 H         1 UNK         0.0754 
    127 H127       33.6052    1.6540  -11.3536 H         1 UNK         0.0769 
    128 H128       33.1722    3.2377  -10.7271 H         1 UNK         0.0769 
    129 H129       32.0317    1.8990  -10.6111 H         1 UNK         0.0769 
    130 H130       32.1204    0.3933   -7.5751 H         1 UNK         0.2981 
    131 H131       31.7747   -1.6703   -6.9914 H         1 UNK         0.0541 
    132 H132       32.5812   -4.2350   -8.3641 H         1 UNK         0.3459 
    133 H133       31.6043   -4.2431   -9.8177 H         1 UNK         0.3459 
    134 H134       34.5529   -2.5159   -7.9633 H         1 UNK         0.0612 
    135 H135       34.3175   -1.6115   -6.4991 H         1 UNK         0.0612 
    136 H136       34.1895   -2.6172   -4.2791 H         1 UNK         0.0624 
    137 H137       33.4456   -4.1427   -3.8630 H         1 UNK         0.0624 
@<TRIPOS>BOND
     1    1    2 1    
     2    1   72 1    
     3    1   73 1    
     4    1   74 1    
     5    2    3 2    
     6    2    4 am   BACKBONE|DICT|INTERRES
     7    4    5 1    
     8    4   75 1    
     9    5    6 1    
    10    5   35 1    
    11    5   76 1    
    12    6    7 1    
    13    6   77 1    
    14    6   78 1    
    15    7    8 1    
    16    8    9 1    
    17    8   79 1    
    18    8   80 1    
    19    9   10 ar   
    20    9   14 ar   
    21   10   11 ar   
    22   10   81 1    
    23   11   12 ar   
    24   11   71 1    
    25   12   13 ar   
    26   12   82 1    
    27   13   14 ar   
    28   13   15 1    
    29   14   83 1    
    30   15   16 1    
    31   15   84 1    
    32   15   85 1    
    33   16   17 1    
    34   17   18 1    
    35   17   86 1    
    36   17   87 1    
    37   18   19 1    
    38   18   37 1    
    39   18   88 1    
    40   19   20 am   BACKBONE|DICT|INTERRES
    41   19   89 1    
    42   20   21 2    
    43   20   22 1    
    44   22   23 1    
    45   22   24 1    
    46   22   90 1    
    47   23   91 1    
    48   23   92 1    
    49   23   93 1    
    50   24   25 am   BACKBONE|DICT|INTERRES
    51   24   94 1    
    52   25   26 2    
    53   25   27 1    
    54   27   28 1    
    55   27   29 1    
    56   27   95 1    
    57   28   96 1    
    58   28   97 1    
    59   28   98 1    
    60   29   30 am   BACKBONE|DICT|INTERRES
    61   29   99 1    
    62   30   31 2    
    63   30   32 1    
    64   32   33 1    
    65   32   34 1    
    66   32  100 1    
    67   33  101 1    
    68   33  102 1    
    69   33  103 1    
    70   34   35 am   BACKBONE|DICT|INTERRES
    71   34  104 1    
    72   35   36 2    
    73   37   38 2    
    74   37   39 am   BACKBONE|DICT|INTERRES
    75   39   40 1    
    76   39  105 1    
    77   40   41 1    
    78   40   42 1    
    79   40  106 1    
    80   41  107 1    
    81   41  108 1    
    82   41  109 1    
    83   42   43 2    
    84   42   44 am   BACKBONE|DICT|INTERRES
    85   44   45 1    
    86   44  110 1    
    87   45   46 1    
    88   45   47 1    
    89   45  111 1    
    90   46  112 1    
    91   46  113 1    
    92   46  114 1    
    93   47   48 2    
    94   47   49 am   BACKBONE|DICT|INTERRES
    95   49   50 1    
    96   49  115 1    
    97   50   51 1    
    98   50   52 1    
    99   50  116 1    
   100   51  117 1    
   101   51  118 1    
   102   51  119 1    
   103   52   53 2    
   104   52   54 am   BACKBONE|DICT|INTERRES
   105   54   55 1    
   106   54  120 1    
   107   55   56 1    
   108   55   57 1    
   109   55  121 1    
   110   56  122 1    
   111   56  123 1    
   112   56  124 1    
   113   57   58 2    
   114   57   59 am   BACKBONE|DICT|INTERRES
   115   59   60 1    
   116   59  125 1    
   117   60   61 1    
   118   60   62 1    
   119   60  126 1    
   120   61  127 1    
   121   61  128 1    
   122   61  129 1    
   123   62   63 2    
   124   62   64 am   BACKBONE|DICT|INTERRES
   125   64   65 1    
   126   64  130 1    
   127   65   66 1    
   128   65   69 1    
   129   65  131 1    
   130   66   67 am   BACKBONE|DICT|INTERRES
   131   66   68 2    
   132   67  132 1    
   133   67  133 1    
   134   69   70 1    
   135   69  134 1    
   136   69  135 1    
   137   70   71 1    
   138   71  136 1    
   139   71  137 1    
@<TRIPOS>SUBSTRUCTURE
     1 UNK         1 GROUP             0       ****    0 ROOT    
