@<TRIPOS>MOLECULE
3R137
137   139    1
SMALL
USER_CHARGES


@<TRIPOS>ATOM
      1 CA         23.2069   -4.8993   -2.9990 C.3       0 UNK        -0.2020 
      2 C          24.1384   -4.1220   -2.0819 C.2       0 UNK         0.4855 
      3 O          23.7049   -3.1716   -1.4298 O.2       0 UNK        -0.5197 
      4 N          25.4199   -4.5073   -2.0381 N.am      1 UNK        -0.4892 
      5 CA         26.4886   -3.8589   -1.2700 C.3       1 UNK         0.0835 
      6 C6         27.8180   -4.6611   -1.3134 C.3       12 UNK        -0.0855 
      7 S7         28.2603   -5.3403   -2.9561 S.3       12 UNK        -0.2931 
      8 C8         30.0762   -5.2329   -2.9372 C.3       12 UNK         0.0378 
      9 C9         30.5839   -4.0371   -3.7297 C.ar      12 UNK        -0.0802 
     10 C10        30.9402   -4.1950   -5.0733 C.ar      12 UNK        -0.0944 
     11 C11        31.4666   -3.1229   -5.7983 C.ar      12 UNK        -0.0787 
     12 C12        31.6248   -1.8845   -5.1730 C.ar      12 UNK        -0.0862 
     13 C13        31.2670   -1.7074   -3.8337 C.ar      12 UNK        -0.0733 
     14 C14        30.7415   -2.7890   -3.1169 C.ar      12 UNK        -0.0832 
     15 C15        31.4909   -0.3620   -3.1504 C.3       12 UNK         0.0240 
     16 S16        30.7140    1.0328   -4.0330 S.3       12 UNK        -0.2522 
     17 C17        28.9537    0.5758   -3.9494 C.3       12 UNK        -0.0967 
     18 CA         28.3461    0.3018   -5.3506 C.3       5 UNK         0.0660 
     19 N          27.3034   -0.7266   -5.2865 N.am      5 UNK        -0.4015 
     20 C          26.6080   -1.2115   -6.3249 C.2       4 UNK         0.4946 
     21 O          26.8057   -0.8985   -7.4976 O.2       4 UNK        -0.5353 
     22 CA         25.4435   -2.1555   -5.9888 C.3       4 UNK         0.0277 
     23 CB         25.9404   -3.5895   -5.7453 C.3       4 UNK        -0.1981 
     24 N          24.6841   -1.6752   -4.8314 N.am      4 UNK        -0.4209 
     25 C          23.9061   -0.5819   -4.8478 C.2       3 UNK         0.4942 
     26 O          23.6882    0.0854   -5.8575 O.2       3 UNK        -0.5208 
     27 CA         23.3113   -0.1222   -3.5073 C.3       3 UNK         0.0250 
     28 CB         21.9763   -0.8296   -3.2275 C.3       3 UNK        -0.1990 
     29 N          24.2371   -0.3239   -2.3896 N.am      3 UNK        -0.4232 
     30 C          25.3618    0.3901   -2.2232 C.2       2 UNK         0.4993 
     31 O          25.7004    1.3077   -2.9700 O.2       2 UNK        -0.5286 
     32 CA         26.2970   -0.0127   -1.0686 C.3       2 UNK         0.0209 
     33 CB         25.9211    0.7421    0.2160 C.3       2 UNK        -0.1931 
     34 N          26.3162   -1.4545   -0.8027 N.am      2 UNK        -0.4546 
     35 C          26.6669   -2.3887   -1.6976 C.2       1 UNK         0.5154 
     36 O          27.0504   -2.1225   -2.8372 O.2       1 UNK        -0.5181 
     37 C          27.8412    1.6068   -6.0051 C.2       5 UNK         0.5014 
     38 O          28.5263    2.1651   -6.8619 O.2       5 UNK        -0.5248 
     39 N          26.6440    2.0573   -5.6003 N.am      6 UNK        -0.4434 
     40 CA         25.9623    3.2252   -6.1591 C.3       6 UNK         0.0363 
     41 CB         24.7875    3.6174   -5.2487 C.3       6 UNK        -0.1936 
     42 C          25.4787    3.0127   -7.6044 C.2       6 UNK         0.5081 
     43 O          25.5856    3.9369   -8.4112 O.2       6 UNK        -0.5248 
     44 N          24.9407    1.8213   -7.9047 N.am      7 UNK        -0.4718 
     45 CA         24.4372    1.4533   -9.2314 C.3       7 UNK         0.0273 
     46 CB         23.5964    0.1702   -9.1319 C.3       7 UNK        -0.1935 
     47 C          25.5523    1.2892  -10.2771 C.2       7 UNK         0.5018 
     48 O          25.3886    1.7547  -11.4062 O.2       7 UNK        -0.5186 
     49 N          26.6489    0.6270   -9.8879 N.am      8 UNK        -0.4240 
     50 CA         27.8480    0.4377  -10.6996 C.3       8 UNK         0.0235 
     51 CB         28.4007   -0.9845  -10.4605 C.3       8 UNK        -0.2000 
     52 C          28.8494    1.5640  -10.3896 C.2       8 UNK         0.4941 
     53 O          28.6100    2.7099  -10.7745 O.2       8 UNK        -0.5273 
     54 N          29.9541    1.2247   -9.7204 N.am      9 UNK        -0.4262 
     55 CA         31.0177    2.1169   -9.2773 C.3       9 UNK         0.0264 
     56 CB         31.9231    2.4945  -10.4670 C.3       9 UNK        -0.1955 
     57 C          31.8089    1.3871   -8.1854 C.2       9 UNK         0.5031 
     58 O          31.5852    0.1930   -7.9637 O.2       9 UNK        -0.5390 
     59 N          32.7476    2.0984   -7.5487 N.am      10 UNK        -0.4204 
     60 CA         33.7018    1.5525   -6.5812 C.3       10 UNK         0.0237 
     61 CB         34.3433    2.7121   -5.7971 C.3       10 UNK        -0.1985 
     62 C          34.7503    0.6661   -7.2817 C.2       10 UNK         0.4970 
     63 O          35.8446    1.1387   -7.5942 O.2       10 UNK        -0.4914 
     64 N          34.3717   -0.5887   -7.5519 N.am      11 UNK        -0.4285 
     65 CA         35.1727   -1.5979   -8.2627 C.3       11 UNK         0.1007 
     66 C          36.4861   -2.0548   -7.5568 C.2       11 UNK         0.5703 
     67 N          36.6848   -1.7788   -6.2729 N.am      11 UNK        -0.7361 
     68 O          37.3445   -2.6617   -8.1939 O.2       11 UNK        -0.4986 
     69 C69        34.2941   -2.7993   -8.7114 C.3       12 UNK        -0.0947 
     70 S70        33.6447   -3.8027   -7.3268 S.3       12 UNK        -0.2240 
     71 C71        31.8960   -3.3046   -7.2453 C.3       12 UNK         0.0194 
     72 H72        22.3403   -5.2523   -2.4406 H         1 UNK         0.0906 
     73 H73        22.8543   -4.2597   -3.8076 H         1 UNK         0.0906 
     74 H74        23.6998   -5.7649   -3.4412 H         1 UNK         0.0906 
     75 H75        25.7356   -5.2699   -2.6221 H         1 UNK         0.3140 
     76 H76        26.1592   -3.8546   -0.2284 H         1 UNK         0.1085 
     77 H77        27.7387   -5.5113   -0.6340 H         1 UNK         0.0836 
     78 H78        28.6402   -4.0587   -0.9223 H         1 UNK         0.0836 
     79 H79        30.4778   -6.1533   -3.3642 H         1 UNK         0.0731 
     80 H80        30.4495   -5.1981   -1.9126 H         1 UNK         0.0731 
     81 H81        30.8282   -5.1593   -5.5501 H         1 UNK         0.1312 
     82 H82        32.0320   -1.0543   -5.7282 H         1 UNK         0.1406 
     83 H83        30.4706   -2.6669   -2.0772 H         1 UNK         0.1631 
     84 H84        32.5639   -0.1780   -3.0842 H         1 UNK         0.0717 
     85 H85        31.1187   -0.3788   -2.1248 H         1 UNK         0.0717 
     86 H86        28.8686   -0.3108   -3.3211 H         1 UNK         0.0934 
     87 H87        28.4115    1.3568   -3.4131 H         1 UNK         0.0934 
     88 H88        29.1232   -0.1095   -5.9995 H         1 UNK         0.0739 
     89 H89        27.1141   -1.1181   -4.3658 H         1 UNK         0.3093 
     90 H90        24.7713   -2.1755   -6.8492 H         1 UNK         0.0818 
     91 H91        26.4644   -3.9706   -6.6227 H         1 UNK         0.0819 
     92 H92        26.6353   -3.6461   -4.9078 H         1 UNK         0.0819 
     93 H93        25.1128   -4.2689   -5.5423 H         1 UNK         0.0819 
     94 H94        24.8700   -2.1232   -3.9458 H         1 UNK         0.3041 
     95 H95        23.1105    0.9486   -3.5869 H         1 UNK         0.0784 
     96 H96        21.2571   -0.6272   -4.0225 H         1 UNK         0.0793 
     97 H97        22.0917   -1.9112   -3.1639 H         1 UNK         0.0793 
     98 H98        21.5321   -0.4843   -2.2938 H         1 UNK         0.0793 
     99 H99        24.0454   -1.1016   -1.7662 H         1 UNK         0.3024 
    100 H100       27.3087    0.2828   -1.3535 H         1 UNK         0.1171 
    101 H101       26.6324    0.5417    1.0175 H         1 UNK         0.0786 
    102 H102       25.9208    1.8203    0.0483 H         1 UNK         0.0786 
    103 H103       24.9269    0.4673    0.5709 H         1 UNK         0.0786 
    104 H104       25.9738   -1.7497    0.1008 H         1 UNK         0.2977 
    105 H105       26.1835    1.5910   -4.8226 H         1 UNK         0.3127 
    106 H106       26.6744    4.0532   -6.1676 H         1 UNK         0.0770 
    107 H107       24.0482    2.8188   -5.1777 H         1 UNK         0.0814 
    108 H108       24.2769    4.5029   -5.6294 H         1 UNK         0.0814 
    109 H109       25.1280    3.8477   -4.2389 H         1 UNK         0.0814 
    110 H110       24.8232    1.1344   -7.1660 H         1 UNK         0.2983 
    111 H111       23.7827    2.2577   -9.5746 H         1 UNK         0.0947 
    112 H112       24.1837   -0.6682   -8.7562 H         1 UNK         0.0806 
    113 H113       23.2032   -0.1167  -10.1080 H         1 UNK         0.0806 
    114 H114       22.7436    0.3061   -8.4666 H         1 UNK         0.0806 
    115 H115       26.6846    0.2530   -8.9404 H         1 UNK         0.3000 
    116 H116       27.5966    0.5176  -11.7593 H         1 UNK         0.0850 
    117 H117       29.2958   -1.1655  -11.0573 H         1 UNK         0.0810 
    118 H118       27.6682   -1.7388  -10.7485 H         1 UNK         0.0810 
    119 H119       28.6543   -1.1620   -9.4145 H         1 UNK         0.0810 
    120 H120       30.0630    0.2790   -9.3725 H         1 UNK         0.3040 
    121 H121       30.5718    3.0127   -8.8409 H         1 UNK         0.0766 
    122 H122       31.3609    2.9992  -11.2525 H         1 UNK         0.0812 
    123 H123       32.3930    1.6146  -10.9073 H         1 UNK         0.0812 
    124 H124       32.7203    3.1725  -10.1618 H         1 UNK         0.0812 
    125 H125       32.8784    3.0655   -7.8078 H         1 UNK         0.3205 
    126 H126       33.1598    0.9354   -5.8636 H         1 UNK         0.0754 
    127 H127       35.0667    2.3379   -5.0712 H         1 UNK         0.0769 
    128 H128       33.5924    3.2757   -5.2423 H         1 UNK         0.0769 
    129 H129       34.8688    3.4076   -6.4529 H         1 UNK         0.0769 
    130 H130       33.4163   -0.8496   -7.3475 H         1 UNK         0.2981 
    131 H131       35.5085   -1.1079   -9.1785 H         1 UNK         0.0541 
    132 H132       37.5402   -2.0754   -5.8305 H         1 UNK         0.3459 
    133 H133       35.9833   -1.2886   -5.7427 H         1 UNK         0.3459 
    134 H134       33.4668   -2.4465   -9.3292 H         1 UNK         0.0612 
    135 H135       34.8718   -3.4616   -9.3588 H         1 UNK         0.0612 
    136 H136       31.7311   -2.3807   -7.7982 H         1 UNK         0.0624 
    137 H137       31.2839   -4.0645   -7.7332 H         1 UNK         0.0624 
@<TRIPOS>BOND
     1    1    2 1    
     2    1   72 1    
     3    1   73 1    
     4    1   74 1    
     5    2    3 2    
     6    2    4 am   BACKBONE|DICT|INTERRES
     7    4    5 1    
     8    4   75 1    
     9    5    6 1    
    10    5   35 1    
    11    5   76 1    
    12    6    7 1    
    13    6   77 1    
    14    6   78 1    
    15    7    8 1    
    16    8    9 1    
    17    8   79 1    
    18    8   80 1    
    19    9   10 ar   
    20    9   14 ar   
    21   10   11 ar   
    22   10   81 1    
    23   11   12 ar   
    24   11   71 1    
    25   12   13 ar   
    26   12   82 1    
    27   13   14 ar   
    28   13   15 1    
    29   14   83 1    
    30   15   16 1    
    31   15   84 1    
    32   15   85 1    
    33   16   17 1    
    34   17   18 1    
    35   17   86 1    
    36   17   87 1    
    37   18   19 1    
    38   18   37 1    
    39   18   88 1    
    40   19   20 am   BACKBONE|DICT|INTERRES
    41   19   89 1    
    42   20   21 2    
    43   20   22 1    
    44   22   23 1    
    45   22   24 1    
    46   22   90 1    
    47   23   91 1    
    48   23   92 1    
    49   23   93 1    
    50   24   25 am   BACKBONE|DICT|INTERRES
    51   24   94 1    
    52   25   26 2    
    53   25   27 1    
    54   27   28 1    
    55   27   29 1    
    56   27   95 1    
    57   28   96 1    
    58   28   97 1    
    59   28   98 1    
    60   29   30 am   BACKBONE|DICT|INTERRES
    61   29   99 1    
    62   30   31 2    
    63   30   32 1    
    64   32   33 1    
    65   32   34 1    
    66   32  100 1    
    67   33  101 1    
    68   33  102 1    
    69   33  103 1    
    70   34   35 am   BACKBONE|DICT|INTERRES
    71   34  104 1    
    72   35   36 2    
    73   37   38 2    
    74   37   39 am   BACKBONE|DICT|INTERRES
    75   39   40 1    
    76   39  105 1    
    77   40   41 1    
    78   40   42 1    
    79   40  106 1    
    80   41  107 1    
    81   41  108 1    
    82   41  109 1    
    83   42   43 2    
    84   42   44 am   BACKBONE|DICT|INTERRES
    85   44   45 1    
    86   44  110 1    
    87   45   46 1    
    88   45   47 1    
    89   45  111 1    
    90   46  112 1    
    91   46  113 1    
    92   46  114 1    
    93   47   48 2    
    94   47   49 am   BACKBONE|DICT|INTERRES
    95   49   50 1    
    96   49  115 1    
    97   50   51 1    
    98   50   52 1    
    99   50  116 1    
   100   51  117 1    
   101   51  118 1    
   102   51  119 1    
   103   52   53 2    
   104   52   54 am   BACKBONE|DICT|INTERRES
   105   54   55 1    
   106   54  120 1    
   107   55   56 1    
   108   55   57 1    
   109   55  121 1    
   110   56  122 1    
   111   56  123 1    
   112   56  124 1    
   113   57   58 2    
   114   57   59 am   BACKBONE|DICT|INTERRES
   115   59   60 1    
   116   59  125 1    
   117   60   61 1    
   118   60   62 1    
   119   60  126 1    
   120   61  127 1    
   121   61  128 1    
   122   61  129 1    
   123   62   63 2    
   124   62   64 am   BACKBONE|DICT|INTERRES
   125   64   65 1    
   126   64  130 1    
   127   65   66 1    
   128   65   69 1    
   129   65  131 1    
   130   66   67 am   BACKBONE|DICT|INTERRES
   131   66   68 2    
   132   67  132 1    
   133   67  133 1    
   134   69   70 1    
   135   69  134 1    
   136   69  135 1    
   137   70   71 1    
   138   71  136 1    
   139   71  137 1    
@<TRIPOS>SUBSTRUCTURE
     1 UNK         1 GROUP             0       ****    0 ROOT    
