@<TRIPOS>MOLECULE
3R137
137   139    1
SMALL
USER_CHARGES


@<TRIPOS>ATOM
      1 CA         29.5721   -1.3428    3.0413 C.3       0 UNK        -0.2020 
      2 C          29.1257   -1.7103    1.6338 C.2       0 UNK         0.4855 
      3 O          28.4761   -2.7407    1.4526 O.2       0 UNK        -0.5197 
      4 N          29.4733   -0.8746    0.6451 N.am      1 UNK        -0.4892 
      5 CA         29.1397   -1.0127   -0.7798 C.3       1 UNK         0.0835 
      6 C6         29.7988   -2.2457   -1.4589 C.3       12 UNK        -0.0855 
      7 S7         31.6172   -2.2793   -1.3266 S.3       12 UNK        -0.2931 
      8 C8         31.9651   -4.0002   -1.8227 C.3       12 UNK         0.0378 
      9 C9         31.5458   -4.2727   -3.2619 C.ar      12 UNK        -0.0802 
     10 C10        32.4376   -4.0434   -4.3126 C.ar      12 UNK        -0.0944 
     11 C11        32.0461   -4.2625   -5.6359 C.ar      12 UNK        -0.0787 
     12 C12        30.7543   -4.7264   -5.9040 C.ar      12 UNK        -0.0862 
     13 C13        29.8435   -4.9464   -4.8630 C.ar      12 UNK        -0.0733 
     14 C14        30.2590   -4.7416   -3.5443 C.ar      12 UNK        -0.0832 
     15 C15        28.4098   -5.4082   -5.1256 C.3       12 UNK         0.0240 
     16 S16        27.6299   -4.6866   -6.6113 S.3       12 UNK        -0.2522 
     17 C17        27.8893   -2.8978   -6.3671 C.3       12 UNK        -0.0967 
     18 CA         26.9574   -2.0728   -7.2865 C.3       5 UNK         0.0660 
     19 N          25.5683   -2.0676   -6.8310 N.am      5 UNK        -0.4015 
     20 C          24.5112   -1.9193   -7.6411 C.2       4 UNK         0.4946 
     21 O          24.5848   -1.8779   -8.8698 O.2       4 UNK        -0.5353 
     22 CA         23.1321   -1.7756   -6.9722 C.3       4 UNK         0.0277 
     23 CB         22.4680   -3.1525   -6.8095 C.3       4 UNK        -0.1981 
     24 N          23.1775   -1.1011   -5.6718 N.am      4 UNK        -0.4209 
     25 C          23.5626    0.1694   -5.4821 C.2       3 UNK         0.4942 
     26 O          23.9066    0.9269   -6.3881 O.2       3 UNK        -0.5208 
     27 CA         23.6229    0.6619   -4.0266 C.3       3 UNK         0.0250 
     28 CB         22.2481    1.1826   -3.5781 C.3       3 UNK        -0.1990 
     29 N          24.1040   -0.3447   -3.0723 N.am      3 UNK        -0.4232 
     30 C          25.2826   -0.9789   -3.1456 C.2       2 UNK         0.4993 
     31 O          26.0813   -0.8515   -4.0781 O.2       2 UNK        -0.5286 
     32 CA         25.5985   -1.9740   -2.0215 C.3       2 UNK         0.0209 
     33 CB         25.2419   -3.4018   -2.4679 C.3       2 UNK        -0.1931 
     34 N          27.0163   -1.9277   -1.6657 N.am      2 UNK        -0.4546 
     35 C          27.6089   -0.9285   -0.9952 C.2       1 UNK         0.5154 
     36 O          26.9948    0.0435   -0.5480 O.2       1 UNK        -0.5181 
     37 C          27.4555   -0.6287   -7.4464 C.2       5 UNK         0.5014 
     38 O          27.9540   -0.2894   -8.5188 O.2       5 UNK        -0.5248 
     39 N          27.2795    0.2012   -6.4058 N.am      6 UNK        -0.4434 
     40 CA         27.7550    1.5885   -6.3384 C.3       6 UNK         0.0363 
     41 CB         27.3975    2.1887   -4.9707 C.3       6 UNK        -0.1936 
     42 C          27.2515    2.4950   -7.4761 C.2       6 UNK         0.5081 
     43 O          27.9918    3.3748   -7.9160 O.2       6 UNK        -0.5248 
     44 N          26.0218    2.2527   -7.9519 N.am      7 UNK        -0.4718 
     45 CA         25.4336    2.9237   -9.1138 C.3       7 UNK         0.0273 
     46 CB         23.9315    2.6039   -9.1758 C.3       7 UNK        -0.1935 
     47 C          26.1104    2.5642  -10.4505 C.2       7 UNK         0.5018 
     48 O          26.0493    3.3712  -11.3793 O.2       7 UNK        -0.5186 
     49 N          26.7280    1.3772  -10.5374 N.am      8 UNK        -0.4240 
     50 CA         27.4785    0.9223  -11.7077 C.3       8 UNK         0.0235 
     51 CB         27.3671   -0.6059  -11.8456 C.3       8 UNK        -0.2000 
     52 C          28.9447    1.3685  -11.6211 C.2       8 UNK         0.4941 
     53 O          29.4598    1.9247  -12.5923 O.2       8 UNK        -0.5273 
     54 N          29.5839    1.1427  -10.4662 N.am      9 UNK        -0.4262 
     55 CA         30.9520    1.5613  -10.1725 C.3       9 UNK         0.0264 
     56 CB         31.9640    0.5957  -10.8182 C.3       9 UNK        -0.1955 
     57 C          31.1388    1.5971   -8.6552 C.2       9 UNK         0.5031 
     58 O          30.7493    0.6483   -7.9741 O.2       9 UNK        -0.5390 
     59 N          31.7806    2.6533   -8.1429 N.am      10 UNK        -0.4204 
     60 CA         32.0495    2.8631   -6.7151 C.3       10 UNK         0.0237 
     61 CB         32.2544    4.3692   -6.4640 C.3       10 UNK        -0.1985 
     62 C          33.2188    2.0038   -6.1836 C.2       10 UNK         0.4970 
     63 O          34.1070    2.5263   -5.5076 O.2       10 UNK        -0.4914 
     64 N          33.2048    0.7046   -6.5018 N.am      11 UNK        -0.4285 
     65 CA         34.1761   -0.2956   -6.0358 C.3       11 UNK         0.1007 
     66 C          33.9447   -0.7912   -4.5804 C.2       11 UNK         0.5703 
     67 N          32.8110   -0.5013   -3.9534 N.am      11 UNK        -0.7361 
     68 O          34.8200   -1.4353   -4.0071 O.2       11 UNK        -0.4986 
     69 C69        34.3305   -1.4649   -7.0460 C.3       12 UNK        -0.0947 
     70 S70        32.7710   -2.3233   -7.4708 S.3       12 UNK        -0.2240 
     71 C71        33.0117   -3.9933   -6.7796 C.3       12 UNK         0.0194 
     72 H72        30.1984   -2.1333    3.4538 H         1 UNK         0.0906 
     73 H73        30.1427   -0.4144    3.0604 H         1 UNK         0.0906 
     74 H74        28.7051   -1.2213    3.6901 H         1 UNK         0.0906 
     75 H75        29.9893   -0.0371    0.8768 H         1 UNK         0.3140 
     76 H76        29.5434   -0.1246   -1.2691 H         1 UNK         0.1085 
     77 H77        29.4073   -3.1720   -1.0350 H         1 UNK         0.0836 
     78 H78        29.5603   -2.2512   -2.5242 H         1 UNK         0.0836 
     79 H79        33.0330   -4.1909   -1.7058 H         1 UNK         0.0731 
     80 H80        31.4583   -4.6857   -1.1416 H         1 UNK         0.0731 
     81 H81        33.4338   -3.6826   -4.0992 H         1 UNK         0.1312 
     82 H82        30.4526   -4.8924   -6.9290 H         1 UNK         0.1406 
     83 H83        29.5702   -4.9276   -2.7319 H         1 UNK         0.1631 
     84 H84        27.7749   -5.1749   -4.2696 H         1 UNK         0.0717 
     85 H85        28.4067   -6.4943   -5.2240 H         1 UNK         0.0717 
     86 H86        27.7422   -2.6404   -5.3166 H         1 UNK         0.0934 
     87 H87        28.9366   -2.6834   -6.5912 H         1 UNK         0.0934 
     88 H88        26.9971   -2.5220   -8.2820 H         1 UNK         0.0739 
     89 H89        25.4268   -2.0317   -5.8305 H         1 UNK         0.3093 
     90 H90        22.5102   -1.1707   -7.6358 H         1 UNK         0.0818 
     91 H91        21.4537   -3.0616   -6.4203 H         1 UNK         0.0819 
     92 H92        22.3991   -3.6672   -7.7691 H         1 UNK         0.0819 
     93 H93        23.0321   -3.7974   -6.1344 H         1 UNK         0.0819 
     94 H94        22.9092   -1.6443   -4.8644 H         1 UNK         0.3041 
     95 H95        24.3234    1.4972   -3.9943 H         1 UNK         0.0784 
     96 H96        21.8781    1.9465   -4.2638 H         1 UNK         0.0793 
     97 H97        21.5033    0.3865   -3.5447 H         1 UNK         0.0793 
     98 H98        22.2989    1.6376   -2.5887 H         1 UNK         0.0793 
     99 H99        23.5047   -0.5279   -2.2800 H         1 UNK         0.3024 
    100 H100       25.0120   -1.7188   -1.1357 H         1 UNK         0.1171 
    101 H101       24.1805   -3.4846   -2.7058 H         1 UNK         0.0786 
    102 H102       25.4522   -4.1275   -1.6818 H         1 UNK         0.0786 
    103 H103       25.7989   -3.6998   -3.3575 H         1 UNK         0.0786 
    104 H104       27.5880   -2.6816   -2.0127 H         1 UNK         0.2977 
    105 H105       26.8389   -0.1639   -5.5618 H         1 UNK         0.3127 
    106 H106       28.8424    1.5520   -6.4121 H         1 UNK         0.0770 
    107 H107       27.8191    3.1889   -4.8629 H         1 UNK         0.0814 
    108 H108       27.7861    1.5814   -4.1529 H         1 UNK         0.0814 
    109 H109       26.3192    2.2749   -4.8436 H         1 UNK         0.0814 
    110 H110       25.4421    1.5622   -7.4819 H         1 UNK         0.2983 
    111 H111       25.5483    4.0007   -8.9727 H         1 UNK         0.0947 
    112 H112       23.4595    3.0949  -10.0281 H         1 UNK         0.0806 
    113 H113       23.4162    2.9480   -8.2788 H         1 UNK         0.0806 
    114 H114       23.7526    1.5321   -9.2735 H         1 UNK         0.0806 
    115 H115       26.8042    0.8017   -9.7045 H         1 UNK         0.3000 
    116 H116       27.0459    1.3646  -12.6080 H         1 UNK         0.0850 
    117 H117       27.8804   -0.9518  -12.7437 H         1 UNK         0.0810 
    118 H118       26.3264   -0.9207  -11.9246 H         1 UNK         0.0810 
    119 H119       27.8093   -1.1302  -10.9983 H         1 UNK         0.0810 
    120 H120       29.0990    0.6738   -9.7001 H         1 UNK         0.3040 
    121 H121       31.1059    2.5665  -10.5710 H         1 UNK         0.0766 
    122 H122       32.9882    0.8861  -10.5810 H         1 UNK         0.0812 
    123 H123       31.8737    0.5873  -11.9044 H         1 UNK         0.0812 
    124 H124       31.8241   -0.4261  -10.4621 H         1 UNK         0.0812 
    125 H125       32.1168    3.3693   -8.7711 H         1 UNK         0.3205 
    126 H126       31.1635    2.5599   -6.1533 H         1 UNK         0.0754 
    127 H127       32.3872    4.5760   -5.4010 H         1 UNK         0.0769 
    128 H128       31.3913    4.9470   -6.7958 H         1 UNK         0.0769 
    129 H129       33.1347    4.7495   -6.9838 H         1 UNK         0.0769 
    130 H130       32.4159    0.3518   -7.0376 H         1 UNK         0.2981 
    131 H131       35.1480    0.2007   -6.0052 H         1 UNK         0.0541 
    132 H132       32.0852    0.0107   -4.4255 H         1 UNK         0.3459 
    133 H133       32.6602   -0.8550   -3.0203 H         1 UNK         0.3459 
    134 H134       35.0774   -2.1781   -6.6949 H         1 UNK         0.0612 
    135 H135       34.7349   -1.0701   -7.9792 H         1 UNK         0.0612 
    136 H136       34.0399   -4.1380   -6.4469 H         1 UNK         0.0624 
    137 H137       32.8501   -4.7230   -7.5743 H         1 UNK         0.0624 
@<TRIPOS>BOND
     1    1    2 1    
     2    1   72 1    
     3    1   73 1    
     4    1   74 1    
     5    2    3 2    
     6    2    4 am   BACKBONE|DICT|INTERRES
     7    4    5 1    
     8    4   75 1    
     9    5    6 1    
    10    5   35 1    
    11    5   76 1    
    12    6    7 1    
    13    6   77 1    
    14    6   78 1    
    15    7    8 1    
    16    8    9 1    
    17    8   79 1    
    18    8   80 1    
    19    9   10 ar   
    20    9   14 ar   
    21   10   11 ar   
    22   10   81 1    
    23   11   12 ar   
    24   11   71 1    
    25   12   13 ar   
    26   12   82 1    
    27   13   14 ar   
    28   13   15 1    
    29   14   83 1    
    30   15   16 1    
    31   15   84 1    
    32   15   85 1    
    33   16   17 1    
    34   17   18 1    
    35   17   86 1    
    36   17   87 1    
    37   18   19 1    
    38   18   37 1    
    39   18   88 1    
    40   19   20 am   BACKBONE|DICT|INTERRES
    41   19   89 1    
    42   20   21 2    
    43   20   22 1    
    44   22   23 1    
    45   22   24 1    
    46   22   90 1    
    47   23   91 1    
    48   23   92 1    
    49   23   93 1    
    50   24   25 am   BACKBONE|DICT|INTERRES
    51   24   94 1    
    52   25   26 2    
    53   25   27 1    
    54   27   28 1    
    55   27   29 1    
    56   27   95 1    
    57   28   96 1    
    58   28   97 1    
    59   28   98 1    
    60   29   30 am   BACKBONE|DICT|INTERRES
    61   29   99 1    
    62   30   31 2    
    63   30   32 1    
    64   32   33 1    
    65   32   34 1    
    66   32  100 1    
    67   33  101 1    
    68   33  102 1    
    69   33  103 1    
    70   34   35 am   BACKBONE|DICT|INTERRES
    71   34  104 1    
    72   35   36 2    
    73   37   38 2    
    74   37   39 am   BACKBONE|DICT|INTERRES
    75   39   40 1    
    76   39  105 1    
    77   40   41 1    
    78   40   42 1    
    79   40  106 1    
    80   41  107 1    
    81   41  108 1    
    82   41  109 1    
    83   42   43 2    
    84   42   44 am   BACKBONE|DICT|INTERRES
    85   44   45 1    
    86   44  110 1    
    87   45   46 1    
    88   45   47 1    
    89   45  111 1    
    90   46  112 1    
    91   46  113 1    
    92   46  114 1    
    93   47   48 2    
    94   47   49 am   BACKBONE|DICT|INTERRES
    95   49   50 1    
    96   49  115 1    
    97   50   51 1    
    98   50   52 1    
    99   50  116 1    
   100   51  117 1    
   101   51  118 1    
   102   51  119 1    
   103   52   53 2    
   104   52   54 am   BACKBONE|DICT|INTERRES
   105   54   55 1    
   106   54  120 1    
   107   55   56 1    
   108   55   57 1    
   109   55  121 1    
   110   56  122 1    
   111   56  123 1    
   112   56  124 1    
   113   57   58 2    
   114   57   59 am   BACKBONE|DICT|INTERRES
   115   59   60 1    
   116   59  125 1    
   117   60   61 1    
   118   60   62 1    
   119   60  126 1    
   120   61  127 1    
   121   61  128 1    
   122   61  129 1    
   123   62   63 2    
   124   62   64 am   BACKBONE|DICT|INTERRES
   125   64   65 1    
   126   64  130 1    
   127   65   66 1    
   128   65   69 1    
   129   65  131 1    
   130   66   67 am   BACKBONE|DICT|INTERRES
   131   66   68 2    
   132   67  132 1    
   133   67  133 1    
   134   69   70 1    
   135   69  134 1    
   136   69  135 1    
   137   70   71 1    
   138   71  136 1    
   139   71  137 1    
@<TRIPOS>SUBSTRUCTURE
     1 UNK         1 GROUP             0       ****    0 ROOT    
