@<TRIPOS>MOLECULE
3R137
137   139    1
SMALL
USER_CHARGES


@<TRIPOS>ATOM
      1 CA         24.3030   -2.8850   -7.6115 C.3       0 UNK        -0.2020 
      2 C          23.9910   -3.5259   -6.2676 C.2       0 UNK         0.4855 
      3 O          22.8882   -4.0367   -6.0694 O.2       0 UNK        -0.5197 
      4 N          24.9576   -3.5003   -5.3426 N.am      1 UNK        -0.4892 
      5 CA         24.8045   -3.9672   -3.9623 C.3       1 UNK         0.0835 
      6 C6         26.1777   -4.1658   -3.2768 C.3       12 UNK        -0.0855 
      7 S7         27.0052   -5.7091   -3.7889 S.3       12 UNK        -0.2931 
      8 C8         28.0652   -5.1749   -5.1785 C.3       12 UNK         0.0378 
      9 C9         29.2531   -4.2695   -4.8394 C.ar      12 UNK        -0.0802 
     10 C10        30.1032   -3.8962   -5.8849 C.ar      12 UNK        -0.0944 
     11 C11        31.2002   -3.0613   -5.6595 C.ar      12 UNK        -0.0787 
     12 C12        31.4406   -2.5764   -4.3713 C.ar      12 UNK        -0.0862 
     13 C13        30.6046   -2.9398   -3.3113 C.ar      12 UNK        -0.0733 
     14 C14        29.5299   -3.8024   -3.5464 C.ar      12 UNK        -0.0832 
     15 C15        30.8604   -2.4038   -1.9082 C.3       12 UNK         0.0240 
     16 S16        29.5528   -1.2569   -1.3567 S.3       12 UNK        -0.2522 
     17 C17        29.6575    0.0588   -2.6174 C.3       12 UNK        -0.0967 
     18 CA         28.4687   -0.0157   -3.6140 C.3       5 UNK         0.0660 
     19 N          27.1669    0.2555   -2.9849 N.am      5 UNK        -0.4015 
     20 C          26.7369    1.4350   -2.5051 C.2       4 UNK         0.4946 
     21 O          27.3983    2.4738   -2.5047 O.2       4 UNK        -0.5353 
     22 CA         25.3172    1.4640   -1.9238 C.3       4 UNK         0.0277 
     23 CB         24.2818    1.6840   -3.0397 C.3       4 UNK        -0.1981 
     24 N          25.0008    0.2350   -1.1964 N.am      4 UNK        -0.4209 
     25 C          25.3256    0.0058    0.0855 C.2       3 UNK         0.4942 
     26 O          25.9319    0.8215    0.7822 O.2       3 UNK        -0.5208 
     27 CA         24.9276   -1.3551    0.7030 C.3       3 UNK         0.0250 
     28 CB         24.4214   -1.2126    2.1545 C.3       3 UNK        -0.1990 
     29 N          23.9843   -2.1369   -0.1091 N.am      3 UNK        -0.4232 
     30 C          22.7326   -1.8075   -0.4678 C.2       2 UNK         0.4993 
     31 O          22.1328   -0.8213   -0.0379 O.2       2 UNK        -0.5286 
     32 CA         22.0590   -2.7101   -1.5248 C.3       2 UNK         0.0209 
     33 CB         21.0642   -1.9237   -2.4060 C.3       2 UNK        -0.1931 
     34 N          23.0017   -3.4588   -2.3765 N.am      2 UNK        -0.4546 
     35 C          23.9648   -2.9534   -3.1645 C.2       1 UNK         0.5154 
     36 O          24.2533   -1.7544   -3.2246 O.2       1 UNK        -0.5181 
     37 C          28.6721    0.8681   -4.8630 C.2       5 UNK         0.5014 
     38 O          29.6207    1.6511   -4.9288 O.2       5 UNK        -0.5248 
     39 N          27.7440    0.7417   -5.8192 N.am      6 UNK        -0.4434 
     40 CA         27.7098    1.5144   -7.0602 C.3       6 UNK         0.0363 
     41 CB         26.8269    2.7630   -6.8655 C.3       6 UNK        -0.1936 
     42 C          27.2551    0.6271   -8.2290 C.2       6 UNK         0.5081 
     43 O          26.4551    1.0621   -9.0581 O.2       6 UNK        -0.5248 
     44 N          27.7630   -0.6140   -8.2744 N.am      7 UNK        -0.4718 
     45 CA         27.5057   -1.5689   -9.3613 C.3       7 UNK         0.0273 
     46 CB         27.9312   -2.9764   -8.9135 C.3       7 UNK        -0.1935 
     47 C          28.2091   -1.1860  -10.6774 C.2       7 UNK         0.5018 
     48 O          27.7395   -1.5651  -11.7509 O.2       7 UNK        -0.5186 
     49 N          29.3078   -0.4347  -10.5662 N.am      8 UNK        -0.4240 
     50 CA         30.0925    0.1437  -11.6472 C.3       8 UNK         0.0235 
     51 CB         31.0906   -0.9004  -12.1817 C.3       8 UNK        -0.2000 
     52 C          30.8246    1.3620  -11.0746 C.2       8 UNK         0.4941 
     53 O          30.9392    1.4843   -9.8517 O.2       8 UNK        -0.5273 
     54 N          31.3603    2.2170  -11.9565 N.am      9 UNK        -0.4262 
     55 CA         32.1626    3.3935  -11.5880 C.3       9 UNK         0.0264 
     56 CB         32.5050    4.1970  -12.8530 C.3       9 UNK        -0.1955 
     57 C          33.4445    3.0487  -10.8039 C.2       9 UNK         0.5031 
     58 O          33.8928    3.8529   -9.9857 O.2       9 UNK        -0.5390 
     59 N          33.9809    1.8423  -11.0364 N.am      10 UNK        -0.4204 
     60 CA         35.1155    1.2587  -10.3194 C.3       10 UNK         0.0237 
     61 CB         35.5514   -0.0266  -11.0426 C.3       10 UNK        -0.1985 
     62 C          34.8429    0.9672   -8.8304 C.2       10 UNK         0.4970 
     63 O          35.8062    0.8318   -8.0747 O.2       10 UNK        -0.4914 
     64 N          33.5668    0.8699   -8.4276 N.am      11 UNK        -0.4285 
     65 CA         33.1612    0.6564   -7.0291 C.3       11 UNK         0.1007 
     66 C          33.3259    1.9092   -6.1198 C.2       11 UNK         0.5703 
     67 N          33.5294    3.1060   -6.6615 N.am      11 UNK        -0.7361 
     68 O          33.2951    1.7866   -4.8978 O.2       11 UNK        -0.4986 
     69 C69        31.7289    0.0717   -6.9107 C.3       12 UNK        -0.0947 
     70 S70        31.4664   -1.4354   -7.9016 S.3       12 UNK        -0.2240 
     71 C71        32.1417   -2.7196   -6.8053 C.3       12 UNK         0.0194 
     72 H72        25.1046   -2.1521   -7.5280 H         1 UNK         0.0906 
     73 H73        24.6008   -3.6453   -8.3329 H         1 UNK         0.0906 
     74 H74        23.4233   -2.3719   -7.9994 H         1 UNK         0.0906 
     75 H75        25.8317   -3.0447   -5.5534 H         1 UNK         0.3140 
     76 H76        24.2730   -4.9218   -3.9765 H         1 UNK         0.1085 
     77 H77        26.0647   -4.2350   -2.1927 H         1 UNK         0.0836 
     78 H78        26.8218   -3.3028   -3.4511 H         1 UNK         0.0836 
     79 H79        27.4425   -4.6827   -5.9253 H         1 UNK         0.0731 
     80 H80        28.4520   -6.0760   -5.6568 H         1 UNK         0.0731 
     81 H81        29.9178   -4.2674   -6.8835 H         1 UNK         0.1312 
     82 H82        32.2840   -1.9230   -4.1933 H         1 UNK         0.1406 
     83 H83        28.9091   -4.0865   -2.7096 H         1 UNK         0.1631 
     84 H84        31.8252   -1.8971   -1.8536 H         1 UNK         0.0717 
     85 H85        30.9146   -3.2396   -1.2092 H         1 UNK         0.0717 
     86 H86        29.6833    1.0272   -2.1152 H         1 UNK         0.0934 
     87 H87        30.6119   -0.0268   -3.1403 H         1 UNK         0.0934 
     88 H88        28.4214   -1.0391   -3.9896 H         1 UNK         0.0739 
     89 H89        26.5299   -0.5265   -2.9324 H         1 UNK         0.3093 
     90 H90        25.2529    2.3102   -1.2359 H         1 UNK         0.0818 
     91 H91        24.2998    0.8824   -3.7789 H         1 UNK         0.0819 
     92 H92        23.2710    1.7417   -2.6352 H         1 UNK         0.0819 
     93 H93        24.4734    2.6183   -3.5692 H         1 UNK         0.0819 
     94 H94        24.5234   -0.4908   -1.7227 H         1 UNK         0.3041 
     95 H95        25.8477   -1.9407    0.7348 H         1 UNK         0.0784 
     96 H96        25.1876   -0.7753    2.7959 H         1 UNK         0.0793 
     97 H97        23.5431   -0.5696    2.2170 H         1 UNK         0.0793 
     98 H98        24.1600   -2.1810    2.5810 H         1 UNK         0.0793 
     99 H99        24.3649   -2.9794   -0.5155 H         1 UNK         0.3024 
    100 H100       21.4895   -3.4517   -0.9620 H         1 UNK         0.1171 
    101 H101       20.5849   -2.5723   -3.1394 H         1 UNK         0.0786 
    102 H102       20.2707   -1.4781   -1.8047 H         1 UNK         0.0786 
    103 H103       21.5565   -1.1141   -2.9463 H         1 UNK         0.0786 
    104 H104       22.8710   -4.4619   -2.3750 H         1 UNK         0.2977 
    105 H105       26.9876    0.0845   -5.6887 H         1 UNK         0.3127 
    106 H106       28.7179    1.8485   -7.3160 H         1 UNK         0.0770 
    107 H107       25.7942    2.4937   -6.6411 H         1 UNK         0.0814 
    108 H108       26.8183    3.3825   -7.7631 H         1 UNK         0.0814 
    109 H109       27.1956    3.3842   -6.0490 H         1 UNK         0.0814 
    110 H110       28.4311   -0.8923   -7.5692 H         1 UNK         0.2983 
    111 H111       26.4320   -1.5812   -9.5611 H         1 UNK         0.0947 
    112 H112       27.6788   -3.7176   -9.6730 H         1 UNK         0.0806 
    113 H113       27.4302   -3.2735   -7.9931 H         1 UNK         0.0806 
    114 H114       29.0069   -3.0368   -8.7483 H         1 UNK         0.0806 
    115 H115       29.6127   -0.1380   -9.6464 H         1 UNK         0.3000 
    116 H116       29.4250    0.4750  -12.4456 H         1 UNK         0.0850 
    117 H117       31.6895   -0.4962  -12.9984 H         1 UNK         0.0810 
    118 H118       30.5748   -1.7798  -12.5679 H         1 UNK         0.0810 
    119 H119       31.7776   -1.2343  -11.4024 H         1 UNK         0.0810 
    120 H120       31.2231    2.0520  -12.9440 H         1 UNK         0.3040 
    121 H121       31.5473    4.0210  -10.9396 H         1 UNK         0.0766 
    122 H122       33.0812    5.0894  -12.6036 H         1 UNK         0.0812 
    123 H123       31.6040    4.5305  -13.3683 H         1 UNK         0.0812 
    124 H124       33.0990    3.6122  -13.5564 H         1 UNK         0.0812 
    125 H125       33.5404    1.2603  -11.7331 H         1 UNK         0.3205 
    126 H126       35.9390    1.9745  -10.3626 H         1 UNK         0.0754 
    127 H127       34.7592   -0.7767  -11.0455 H         1 UNK         0.0769 
    128 H128       36.4204   -0.4732  -10.5569 H         1 UNK         0.0769 
    129 H129       35.8303    0.1737  -12.0774 H         1 UNK         0.0769 
    130 H130       32.8094    1.0149   -9.0852 H         1 UNK         0.2981 
    131 H131       33.8388   -0.0911   -6.6131 H         1 UNK         0.0541 
    132 H132       33.5736    3.2181   -7.6642 H         1 UNK         0.3459 
    133 H133       33.6433    3.9054   -6.0592 H         1 UNK         0.3459 
    134 H134       30.9968    0.8118   -7.2360 H         1 UNK         0.0612 
    135 H135       31.4895   -0.1490   -5.8701 H         1 UNK         0.0612 
    136 H136       33.1158   -2.4060   -6.4279 H         1 UNK         0.0624 
    137 H137       32.3240   -3.6171   -7.3980 H         1 UNK         0.0624 
@<TRIPOS>BOND
     1    1    2 1    
     2    1   72 1    
     3    1   73 1    
     4    1   74 1    
     5    2    3 2    
     6    2    4 am   BACKBONE|DICT|INTERRES
     7    4    5 1    
     8    4   75 1    
     9    5    6 1    
    10    5   35 1    
    11    5   76 1    
    12    6    7 1    
    13    6   77 1    
    14    6   78 1    
    15    7    8 1    
    16    8    9 1    
    17    8   79 1    
    18    8   80 1    
    19    9   10 ar   
    20    9   14 ar   
    21   10   11 ar   
    22   10   81 1    
    23   11   12 ar   
    24   11   71 1    
    25   12   13 ar   
    26   12   82 1    
    27   13   14 ar   
    28   13   15 1    
    29   14   83 1    
    30   15   16 1    
    31   15   84 1    
    32   15   85 1    
    33   16   17 1    
    34   17   18 1    
    35   17   86 1    
    36   17   87 1    
    37   18   19 1    
    38   18   37 1    
    39   18   88 1    
    40   19   20 am   BACKBONE|DICT|INTERRES
    41   19   89 1    
    42   20   21 2    
    43   20   22 1    
    44   22   23 1    
    45   22   24 1    
    46   22   90 1    
    47   23   91 1    
    48   23   92 1    
    49   23   93 1    
    50   24   25 am   BACKBONE|DICT|INTERRES
    51   24   94 1    
    52   25   26 2    
    53   25   27 1    
    54   27   28 1    
    55   27   29 1    
    56   27   95 1    
    57   28   96 1    
    58   28   97 1    
    59   28   98 1    
    60   29   30 am   BACKBONE|DICT|INTERRES
    61   29   99 1    
    62   30   31 2    
    63   30   32 1    
    64   32   33 1    
    65   32   34 1    
    66   32  100 1    
    67   33  101 1    
    68   33  102 1    
    69   33  103 1    
    70   34   35 am   BACKBONE|DICT|INTERRES
    71   34  104 1    
    72   35   36 2    
    73   37   38 2    
    74   37   39 am   BACKBONE|DICT|INTERRES
    75   39   40 1    
    76   39  105 1    
    77   40   41 1    
    78   40   42 1    
    79   40  106 1    
    80   41  107 1    
    81   41  108 1    
    82   41  109 1    
    83   42   43 2    
    84   42   44 am   BACKBONE|DICT|INTERRES
    85   44   45 1    
    86   44  110 1    
    87   45   46 1    
    88   45   47 1    
    89   45  111 1    
    90   46  112 1    
    91   46  113 1    
    92   46  114 1    
    93   47   48 2    
    94   47   49 am   BACKBONE|DICT|INTERRES
    95   49   50 1    
    96   49  115 1    
    97   50   51 1    
    98   50   52 1    
    99   50  116 1    
   100   51  117 1    
   101   51  118 1    
   102   51  119 1    
   103   52   53 2    
   104   52   54 am   BACKBONE|DICT|INTERRES
   105   54   55 1    
   106   54  120 1    
   107   55   56 1    
   108   55   57 1    
   109   55  121 1    
   110   56  122 1    
   111   56  123 1    
   112   56  124 1    
   113   57   58 2    
   114   57   59 am   BACKBONE|DICT|INTERRES
   115   59   60 1    
   116   59  125 1    
   117   60   61 1    
   118   60   62 1    
   119   60  126 1    
   120   61  127 1    
   121   61  128 1    
   122   61  129 1    
   123   62   63 2    
   124   62   64 am   BACKBONE|DICT|INTERRES
   125   64   65 1    
   126   64  130 1    
   127   65   66 1    
   128   65   69 1    
   129   65  131 1    
   130   66   67 am   BACKBONE|DICT|INTERRES
   131   66   68 2    
   132   67  132 1    
   133   67  133 1    
   134   69   70 1    
   135   69  134 1    
   136   69  135 1    
   137   70   71 1    
   138   71  136 1    
   139   71  137 1    
@<TRIPOS>SUBSTRUCTURE
     1 UNK         1 GROUP             0       ****    0 ROOT    
