@<TRIPOS>MOLECULE
3R137
137   139    1
SMALL
USER_CHARGES


@<TRIPOS>ATOM
      1 CA         30.8019    1.0021   -2.3849 C.3       0 UNK        -0.2020 
      2 C          30.0043   -0.2784   -2.5719 C.2       0 UNK         0.4855 
      3 O          29.4682   -0.5173   -3.6514 O.2       0 UNK        -0.5197 
      4 N          29.9236   -1.1034   -1.5215 N.am      1 UNK        -0.4892 
      5 CA         29.1337   -2.3358   -1.4975 C.3       1 UNK         0.0835 
      6 C6         29.6477   -3.2910   -0.3914 C.3       12 UNK        -0.0855 
      7 S7         29.1101   -5.0171   -0.6347 S.3       12 UNK        -0.2931 
      8 C8         30.5625   -5.7439   -1.4637 C.3       12 UNK         0.0378 
      9 C9         30.7461   -5.1946   -2.8717 C.ar      12 UNK        -0.0802 
     10 C10        31.8592   -4.4089   -3.1929 C.ar      12 UNK        -0.0944 
     11 C11        32.0232   -3.9108   -4.4900 C.ar      12 UNK        -0.0787 
     12 C12        31.0584   -4.1907   -5.4615 C.ar      12 UNK        -0.0862 
     13 C13        29.9330   -4.9575   -5.1466 C.ar      12 UNK        -0.0733 
     14 C14        29.7930   -5.4737   -3.8559 C.ar      12 UNK        -0.0832 
     15 C15        28.8547   -5.2052   -6.1928 C.3       12 UNK         0.0240 
     16 S16        27.3004   -4.3483   -5.7764 S.3       12 UNK        -0.2522 
     17 C17        27.8389   -2.6066   -5.7151 C.3       12 UNK        -0.0967 
     18 CA         27.1213   -1.7129   -6.7488 C.3       5 UNK         0.0660 
     19 N          25.6652   -1.7035   -6.5778 N.am      5 UNK        -0.4015 
     20 C          24.7918   -1.1172   -7.4085 C.2       4 UNK         0.4946 
     21 O          25.1164   -0.5221   -8.4358 O.2       4 UNK        -0.5353 
     22 CA         23.3104   -1.1677   -7.0015 C.3       4 UNK         0.0277 
     23 CB         22.7022   -2.5411   -7.3280 C.3       4 UNK        -0.1981 
     24 N          23.1185   -0.8631   -5.5817 N.am      4 UNK        -0.4209 
     25 C          23.3145    0.3472   -5.0374 C.2       3 UNK         0.4942 
     26 O          23.5828    1.3564   -5.6895 O.2       3 UNK        -0.5208 
     27 CA         23.2343    0.4413   -3.5011 C.3       3 UNK         0.0250 
     28 CB         21.7918    0.7266   -3.0532 C.3       3 UNK        -0.1990 
     29 N          23.7431   -0.7445   -2.7960 N.am      3 UNK        -0.4232 
     30 C          24.9899   -1.2227   -2.9146 C.2       2 UNK         0.4993 
     31 O          25.8309   -0.7310   -3.6682 O.2       2 UNK        -0.5286 
     32 CA         25.3277   -2.4918   -2.1106 C.3       2 UNK         0.0209 
     33 CB         24.6570   -3.7235   -2.7433 C.3       2 UNK        -0.1931 
     34 N          26.7724   -2.7320   -2.0469 N.am      2 UNK        -0.4546 
     35 C          27.6361   -2.0003   -1.3309 C.2       1 UNK         0.5154 
     36 O          27.2928   -1.1113   -0.5454 O.2       1 UNK        -0.5181 
     37 C          27.7066   -0.2915   -6.7042 C.2       5 UNK         0.5014 
     38 O          28.5419    0.0395   -7.5451 O.2       5 UNK        -0.5248 
     39 N          27.2209    0.5357   -5.7695 N.am      6 UNK        -0.4434 
     40 CA         27.5987    1.9408   -5.6090 C.3       6 UNK         0.0363 
     41 CB         26.9076    2.5085   -4.3599 C.3       6 UNK        -0.1936 
     42 C          27.2968    2.8122   -6.8439 C.2       6 UNK         0.5081 
     43 O          27.9771    3.8179   -7.0459 O.2       6 UNK        -0.5248 
     44 N          26.3059    2.4113   -7.6513 N.am      7 UNK        -0.4718 
     45 CA         25.9911    3.0261   -8.9382 C.3       7 UNK         0.0273 
     46 CB         24.4767    2.9352   -9.1907 C.3       7 UNK        -0.1935 
     47 C          26.7798    2.3718  -10.0847 C.2       7 UNK         0.5018 
     48 O          27.3792    3.0885  -10.8869 O.2       7 UNK        -0.5186 
     49 N          26.7373    1.0339  -10.1664 N.am      8 UNK        -0.4240 
     50 CA         27.2652    0.2569  -11.2910 C.3       8 UNK         0.0235 
     51 CB         26.6310   -1.1442  -11.2832 C.3       8 UNK        -0.2000 
     52 C          28.7978    0.1470  -11.3243 C.2       8 UNK         0.4941 
     53 O          29.3843    0.2900  -12.3982 O.2       8 UNK        -0.5273 
     54 N          29.4110   -0.1401  -10.1705 N.am      9 UNK        -0.4262 
     55 CA         30.8482   -0.3839  -10.0207 C.3       9 UNK         0.0264 
     56 CB         31.0586   -1.6971   -9.2451 C.3       9 UNK        -0.1955 
     57 C          31.5531    0.7680   -9.2934 C.2       9 UNK         0.5031 
     58 O          32.7179    1.0392   -9.5912 O.2       9 UNK        -0.5390 
     59 N          30.8549    1.4028   -8.3407 N.am      10 UNK        -0.4204 
     60 CA         31.3002    2.4611   -7.4260 C.3       10 UNK         0.0237 
     61 CB         31.7891    3.7179   -8.1735 C.3       10 UNK        -0.1985 
     62 C          32.3196    1.9700   -6.3852 C.2       10 UNK         0.4970 
     63 O          32.0535    2.1049   -5.1930 O.2       10 UNK        -0.4914 
     64 N          33.4409    1.4127   -6.8627 N.am      11 UNK        -0.4285 
     65 CA         34.5336    0.7464   -6.1285 C.3       11 UNK         0.1007 
     66 C          35.0919    1.4507   -4.8522 C.2       11 UNK         0.5703 
     67 N          35.0067    2.7711   -4.7464 N.am      11 UNK        -0.7361 
     68 O          35.6547    0.8077   -3.9687 O.2       11 UNK        -0.4986 
     69 C69        34.3199   -0.7901   -5.9949 C.3       12 UNK        -0.0947 
     70 S70        32.8689   -1.3215   -5.0262 S.3       12 UNK        -0.2240 
     71 C71        33.2508   -3.0933   -4.8635 C.3       12 UNK         0.0194 
     72 H72        30.3124    1.8296   -2.8985 H         1 UNK         0.0906 
     73 H73        30.9036    1.2686   -1.3332 H         1 UNK         0.0906 
     74 H74        31.7991    0.8828   -2.8082 H         1 UNK         0.0906 
     75 H75        30.3483   -0.8357   -0.6453 H         1 UNK         0.3140 
     76 H76        29.2698   -2.8221   -2.4665 H         1 UNK         0.1085 
     77 H77        30.7386   -3.2780   -0.3633 H         1 UNK         0.0836 
     78 H78        29.3258   -2.9563    0.5969 H         1 UNK         0.0836 
     79 H79        31.4527   -5.5764   -0.8554 H         1 UNK         0.0731 
     80 H80        30.4311   -6.8255   -1.5195 H         1 UNK         0.0731 
     81 H81        32.6011   -4.1902   -2.4370 H         1 UNK         0.1312 
     82 H82        31.1796   -3.7935   -6.4602 H         1 UNK         0.1406 
     83 H83        28.9243   -6.0692   -3.6086 H         1 UNK         0.1631 
     84 H84        28.6619   -6.2763   -6.2670 H         1 UNK         0.0717 
     85 H85        29.1860   -4.8819   -7.1810 H         1 UNK         0.0717 
     86 H86        27.6737   -2.2383   -4.7027 H         1 UNK         0.0934 
     87 H87        28.9167   -2.5459   -5.8695 H         1 UNK         0.0934 
     88 H88        27.3264   -2.1146   -7.7435 H         1 UNK         0.0739 
     89 H89        25.3212   -2.1311   -5.7322 H         1 UNK         0.3093 
     90 H90        22.7805   -0.4127   -7.5868 H         1 UNK         0.0818 
     91 H91        21.6329   -2.5610   -7.1166 H         1 UNK         0.0819 
     92 H92        22.8255   -2.7786   -8.3858 H         1 UNK         0.0819 
     93 H93        23.1725   -3.3431   -6.7576 H         1 UNK         0.0819 
     94 H94        22.8780   -1.6302   -4.9714 H         1 UNK         0.3041 
     95 H95        23.8566    1.2866   -3.1995 H         1 UNK         0.0784 
     96 H96        21.3988    1.6162   -3.5479 H         1 UNK         0.0793 
     97 H97        21.1222   -0.1009   -3.2910 H         1 UNK         0.0793 
     98 H98        21.7372    0.9063   -1.9793 H         1 UNK         0.0793 
     99 H99        23.1002   -1.2059   -2.1679 H         1 UNK         0.3024 
    100 H100       24.9541   -2.3622   -1.0922 H         1 UNK         0.1171 
    101 H101       23.5712   -3.6221   -2.7576 H         1 UNK         0.0786 
    102 H102       24.8845   -4.6297   -2.1812 H         1 UNK         0.0786 
    103 H103       24.9837   -3.8795   -3.7720 H         1 UNK         0.0786 
    104 H104       27.1362   -3.4435   -2.6637 H         1 UNK         0.2977 
    105 H105       26.5994    0.1448   -5.0614 H         1 UNK         0.3127 
    106 H106       28.6769    1.9645   -5.4401 H         1 UNK         0.0770 
    107 H107       25.8222    2.4985   -4.4628 H         1 UNK         0.0814 
    108 H108       27.2111    3.5407   -4.1807 H         1 UNK         0.0814 
    109 H109       27.1660    1.9332   -3.4702 H         1 UNK         0.0814 
    110 H110       25.7955    1.5725   -7.4072 H         1 UNK         0.2983 
    111 H111       26.2592    4.0849   -8.9120 H         1 UNK         0.0947 
    112 H112       24.1267    1.9027   -9.2178 H         1 UNK         0.0806 
    113 H113       23.9160    3.4540   -8.4129 H         1 UNK         0.0806 
    114 H114       24.2118    3.3952  -10.1437 H         1 UNK         0.0806 
    115 H115       26.1983    0.5165   -9.4732 H         1 UNK         0.3000 
    116 H116       26.9555    0.7546  -12.2128 H         1 UNK         0.0850 
    117 H117       26.9826   -1.7387  -12.1276 H         1 UNK         0.0810 
    118 H118       25.5447   -1.0872  -11.3566 H         1 UNK         0.0810 
    119 H119       26.8739   -1.6930  -10.3724 H         1 UNK         0.0810 
    120 H120       28.8591   -0.1788   -9.3159 H         1 UNK         0.3040 
    121 H121       31.3197   -0.4918  -10.9998 H         1 UNK         0.0766 
    122 H122       32.1211   -1.9163   -9.1300 H         1 UNK         0.0812 
    123 H123       30.6080   -2.5413   -9.7670 H         1 UNK         0.0812 
    124 H124       30.6268   -1.6532   -8.2441 H         1 UNK         0.0812 
    125 H125       29.9389    1.0153   -8.1167 H         1 UNK         0.3205 
    126 H126       30.4110    2.7523   -6.8685 H         1 UNK         0.0754 
    127 H127       32.0164    4.5205   -7.4709 H         1 UNK         0.0769 
    128 H128       31.0231    4.0913   -8.8535 H         1 UNK         0.0769 
    129 H129       32.6922    3.5327   -8.7551 H         1 UNK         0.0769 
    130 H130       33.5043    1.3544   -7.8754 H         1 UNK         0.2981 
    131 H131       35.3747    0.8427   -6.8157 H         1 UNK         0.0541 
    132 H132       34.5370    3.3094   -5.4562 H         1 UNK         0.3459 
    133 H133       35.3801    3.2262   -3.9288 H         1 UNK         0.3459 
    134 H134       35.2111   -1.2591   -5.5741 H         1 UNK         0.0612 
    135 H135       34.2126   -1.2192   -6.9924 H         1 UNK         0.0612 
    136 H136       33.6493   -3.4670   -5.8081 H         1 UNK         0.0624 
    137 H137       34.0420   -3.2205   -4.1231 H         1 UNK         0.0624 
@<TRIPOS>BOND
     1    1    2 1    
     2    1   72 1    
     3    1   73 1    
     4    1   74 1    
     5    2    3 2    
     6    2    4 am   BACKBONE|DICT|INTERRES
     7    4    5 1    
     8    4   75 1    
     9    5    6 1    
    10    5   35 1    
    11    5   76 1    
    12    6    7 1    
    13    6   77 1    
    14    6   78 1    
    15    7    8 1    
    16    8    9 1    
    17    8   79 1    
    18    8   80 1    
    19    9   10 ar   
    20    9   14 ar   
    21   10   11 ar   
    22   10   81 1    
    23   11   12 ar   
    24   11   71 1    
    25   12   13 ar   
    26   12   82 1    
    27   13   14 ar   
    28   13   15 1    
    29   14   83 1    
    30   15   16 1    
    31   15   84 1    
    32   15   85 1    
    33   16   17 1    
    34   17   18 1    
    35   17   86 1    
    36   17   87 1    
    37   18   19 1    
    38   18   37 1    
    39   18   88 1    
    40   19   20 am   BACKBONE|DICT|INTERRES
    41   19   89 1    
    42   20   21 2    
    43   20   22 1    
    44   22   23 1    
    45   22   24 1    
    46   22   90 1    
    47   23   91 1    
    48   23   92 1    
    49   23   93 1    
    50   24   25 am   BACKBONE|DICT|INTERRES
    51   24   94 1    
    52   25   26 2    
    53   25   27 1    
    54   27   28 1    
    55   27   29 1    
    56   27   95 1    
    57   28   96 1    
    58   28   97 1    
    59   28   98 1    
    60   29   30 am   BACKBONE|DICT|INTERRES
    61   29   99 1    
    62   30   31 2    
    63   30   32 1    
    64   32   33 1    
    65   32   34 1    
    66   32  100 1    
    67   33  101 1    
    68   33  102 1    
    69   33  103 1    
    70   34   35 am   BACKBONE|DICT|INTERRES
    71   34  104 1    
    72   35   36 2    
    73   37   38 2    
    74   37   39 am   BACKBONE|DICT|INTERRES
    75   39   40 1    
    76   39  105 1    
    77   40   41 1    
    78   40   42 1    
    79   40  106 1    
    80   41  107 1    
    81   41  108 1    
    82   41  109 1    
    83   42   43 2    
    84   42   44 am   BACKBONE|DICT|INTERRES
    85   44   45 1    
    86   44  110 1    
    87   45   46 1    
    88   45   47 1    
    89   45  111 1    
    90   46  112 1    
    91   46  113 1    
    92   46  114 1    
    93   47   48 2    
    94   47   49 am   BACKBONE|DICT|INTERRES
    95   49   50 1    
    96   49  115 1    
    97   50   51 1    
    98   50   52 1    
    99   50  116 1    
   100   51  117 1    
   101   51  118 1    
   102   51  119 1    
   103   52   53 2    
   104   52   54 am   BACKBONE|DICT|INTERRES
   105   54   55 1    
   106   54  120 1    
   107   55   56 1    
   108   55   57 1    
   109   55  121 1    
   110   56  122 1    
   111   56  123 1    
   112   56  124 1    
   113   57   58 2    
   114   57   59 am   BACKBONE|DICT|INTERRES
   115   59   60 1    
   116   59  125 1    
   117   60   61 1    
   118   60   62 1    
   119   60  126 1    
   120   61  127 1    
   121   61  128 1    
   122   61  129 1    
   123   62   63 2    
   124   62   64 am   BACKBONE|DICT|INTERRES
   125   64   65 1    
   126   64  130 1    
   127   65   66 1    
   128   65   69 1    
   129   65  131 1    
   130   66   67 am   BACKBONE|DICT|INTERRES
   131   66   68 2    
   132   67  132 1    
   133   67  133 1    
   134   69   70 1    
   135   69  134 1    
   136   69  135 1    
   137   70   71 1    
   138   71  136 1    
   139   71  137 1    
@<TRIPOS>SUBSTRUCTURE
     1 UNK         1 GROUP             0       ****    0 ROOT    
