@<TRIPOS>MOLECULE
3R137
137   139    1
SMALL
USER_CHARGES


@<TRIPOS>ATOM
      1 CA         22.8862   -5.2797   -2.4690 C.3       0 UNK        -0.2020 
      2 C          24.2331   -4.8365   -1.9188 C.2       0 UNK         0.4855 
      3 O          24.3075   -4.3670   -0.7827 O.2       0 UNK        -0.5197 
      4 N          25.3005   -4.9692   -2.7173 N.am      1 UNK        -0.4892 
      5 CA         26.6707   -4.5650   -2.3825 C.3       1 UNK         0.0835 
      6 C6         27.6937   -5.3549   -3.2388 C.3       12 UNK        -0.0855 
      7 S7         29.4144   -5.1787   -2.6486 S.3       12 UNK        -0.2931 
      8 C8         30.1927   -4.3836   -4.0909 C.3       12 UNK         0.0378 
      9 C9         31.2555   -3.3744   -3.6873 C.ar      12 UNK        -0.0802 
     10 C10        32.5954   -3.5600   -4.0381 C.ar      12 UNK        -0.0944 
     11 C11        33.5521   -2.5816   -3.7396 C.ar      12 UNK        -0.0787 
     12 C12        33.1562   -1.4241   -3.0598 C.ar      12 UNK        -0.0862 
     13 C13        31.8190   -1.2320   -2.6953 C.ar      12 UNK        -0.0733 
     14 C14        30.8788   -2.2169   -3.0057 C.ar      12 UNK        -0.0832 
     15 C15        31.3944    0.0298   -1.9556 C.3       12 UNK         0.0240 
     16 S16        30.8320    1.3445   -3.0885 S.3       12 UNK        -0.2522 
     17 C17        29.1276    0.8256   -3.4772 C.3       12 UNK        -0.0967 
     18 CA         28.8126    0.8457   -4.9990 C.3       5 UNK         0.0660 
     19 N          27.8967   -0.2315   -5.3860 N.am      5 UNK        -0.4015 
     20 C          27.5440   -0.5410   -6.6425 C.2       4 UNK         0.4946 
     21 O          28.0715   -0.0637   -7.6487 O.2       4 UNK        -0.5353 
     22 CA         26.3841   -1.5349   -6.8126 C.3       4 UNK         0.0277 
     23 CB         26.9084   -2.9720   -6.9460 C.3       4 UNK        -0.1981 
     24 N          25.4152   -1.4571   -5.7160 N.am      4 UNK        -0.4209 
     25 C          24.5619   -0.4371   -5.5380 C.2       3 UNK         0.4942 
     26 O          24.4826    0.5274   -6.2971 O.2       3 UNK        -0.5208 
     27 CA         23.6869   -0.4746   -4.2735 C.3       3 UNK         0.0250 
     28 CB         22.4862   -1.4144   -4.4691 C.3       3 UNK        -0.1990 
     29 N          24.4353   -0.8759   -3.0804 N.am      3 UNK        -0.4232 
     30 C          25.4677   -0.1951   -2.5627 C.2       2 UNK         0.4993 
     31 O          25.8653    0.8835   -3.0006 O.2       2 UNK        -0.5286 
     32 CA         26.2237   -0.8570   -1.3989 C.3       2 UNK         0.0209 
     33 CB         25.6080   -0.4434   -0.0536 C.3       2 UNK        -0.1931 
     34 N          26.2685   -2.3206   -1.4869 N.am      2 UNK        -0.4546 
     35 C          26.8043   -3.0288   -2.4913 C.2       1 UNK         0.5154 
     36 O          27.3113   -2.5092   -3.4887 O.2       1 UNK        -0.5181 
     37 C          28.2562    2.2167   -5.4358 C.2       5 UNK         0.5014 
     38 O          28.9244    2.9418   -6.1729 O.2       5 UNK        -0.5248 
     39 N          27.0250    2.5242   -4.9976 N.am      6 UNK        -0.4434 
     40 CA         26.3063    3.7702   -5.2794 C.3       6 UNK         0.0363 
     41 CB         24.9986    3.7978   -4.4724 C.3       6 UNK        -0.1936 
     42 C          26.0228    3.9940   -6.7735 C.2       6 UNK         0.5081 
     43 O          26.1491    5.1220   -7.2503 O.2       6 UNK        -0.5248 
     44 N          25.6711    2.9185   -7.4907 N.am      7 UNK        -0.4718 
     45 CA         25.4596    2.9213   -8.9412 C.3       7 UNK         0.0273 
     46 CB         24.6834    1.6525   -9.3326 C.3       7 UNK        -0.1935 
     47 C          26.7604    3.0155   -9.7609 C.2       7 UNK         0.5018 
     48 O          26.6799    3.2504  -10.9673 O.2       7 UNK        -0.5186 
     49 N          27.9174    2.7950   -9.1151 N.am      8 UNK        -0.4240 
     50 CA         29.2574    2.6694   -9.7036 C.3       8 UNK         0.0235 
     51 CB         29.7270    4.0065  -10.3148 C.3       8 UNK        -0.2000 
     52 C          29.3705    1.4814  -10.6815 C.2       8 UNK         0.4941 
     53 O          30.1342    1.5434  -11.6471 O.2       8 UNK        -0.5273 
     54 N          28.6043    0.4177  -10.4061 N.am      9 UNK        -0.4262 
     55 CA         28.6516   -0.8602  -11.1141 C.3       9 UNK         0.0264 
     56 CB         27.2859   -1.5560  -10.9954 C.3       9 UNK        -0.1955 
     57 C          29.7695   -1.7530  -10.5547 C.2       9 UNK         0.5031 
     58 O          30.3876   -2.4985  -11.3164 O.2       9 UNK        -0.5390 
     59 N          30.0149   -1.6433   -9.2434 N.am      10 UNK        -0.4204 
     60 CA         31.1430   -2.2470   -8.5402 C.3       10 UNK         0.0237 
     61 CB         30.6298   -2.8576   -7.2238 C.3       10 UNK        -0.1985 
     62 C          32.2259   -1.1869   -8.2784 C.2       10 UNK         0.4970 
     63 O          32.0704   -0.0248   -8.6607 O.2       10 UNK        -0.4914 
     64 N          33.2966   -1.6114   -7.6002 N.am      11 UNK        -0.4285 
     65 CA         34.4194   -0.7873   -7.1207 C.3       11 UNK         0.1007 
     66 C          34.0742    0.3105   -6.0676 C.2       11 UNK         0.5703 
     67 N          32.8299    0.4565   -5.6371 N.am      11 UNK        -0.7361 
     68 O          34.9540    1.0585   -5.6472 O.2       11 UNK        -0.4986 
     69 C69        35.6350   -1.6652   -6.6929 C.3       12 UNK        -0.0947 
     70 S70        35.2340   -3.2505   -5.8709 S.3       12 UNK        -0.2240 
     71 C71        35.0157   -2.7863   -4.1203 C.3       12 UNK         0.0194 
     72 H72        22.1899   -4.4415   -2.4774 H         1 UNK         0.0906 
     73 H73        22.9659   -5.6646   -3.4855 H         1 UNK         0.0906 
     74 H74        22.4658   -6.0649   -1.8413 H         1 UNK         0.0906 
     75 H75        25.1747   -5.3514   -3.6443 H         1 UNK         0.3140 
     76 H76        26.8547   -4.8307   -1.3385 H         1 UNK         0.1085 
     77 H77        27.6087   -5.0882   -4.2933 H         1 UNK         0.0836 
     78 H78        27.4583   -6.4194   -3.1912 H         1 UNK         0.0836 
     79 H79        29.4440   -3.8524   -4.6787 H         1 UNK         0.0731 
     80 H80        30.6063   -5.1541   -4.7433 H         1 UNK         0.0731 
     81 H81        32.8932   -4.4582   -4.5615 H         1 UNK         0.1312 
     82 H82        33.8877   -0.6637   -2.8224 H         1 UNK         0.1406 
     83 H83        29.8444   -2.0966   -2.7212 H         1 UNK         0.1631 
     84 H84        32.2340    0.4125   -1.3735 H         1 UNK         0.0717 
     85 H85        30.6089   -0.1973   -1.2330 H         1 UNK         0.0717 
     86 H86        28.9700   -0.1737   -3.0819 H         1 UNK         0.0934 
     87 H87        28.4461    1.4555   -2.9024 H         1 UNK         0.0934 
     88 H88        29.7370    0.6707   -5.5538 H         1 UNK         0.0739 
     89 H89        27.4571   -0.7492   -4.6341 H         1 UNK         0.3093 
     90 H90        25.8644   -1.2783   -7.7379 H         1 UNK         0.0818 
     91 H91        26.0922   -3.6829   -7.0744 H         1 UNK         0.0819 
     92 H92        27.5558   -3.0673   -7.8181 H         1 UNK         0.0819 
     93 H93        27.4859   -3.2767   -6.0735 H         1 UNK         0.0819 
     94 H94        25.4632   -2.1821   -5.0144 H         1 UNK         0.3041 
     95 H95        23.3081    0.5357   -4.1046 H         1 UNK         0.0784 
     96 H96        21.9051   -1.1254   -5.3461 H         1 UNK         0.0793 
     97 H97        22.7975   -2.4501   -4.6113 H         1 UNK         0.0793 
     98 H98        21.8130   -1.3810   -3.6122 H         1 UNK         0.0793 
     99 H99        24.1755   -1.7480   -2.6440 H         1 UNK         0.3024 
    100 H100       27.2518   -0.4926   -1.4285 H         1 UNK         0.1171 
    101 H101       26.1924   -0.8249    0.7840 H         1 UNK         0.0786 
    102 H102       25.5765    0.6430    0.0440 H         1 UNK         0.0786 
    103 H103       24.5867   -0.8111    0.0545 H         1 UNK         0.0786 
    104 H104       25.7817   -2.8383   -0.7630 H         1 UNK         0.2977 
    105 H105       26.5568    1.8710   -4.3698 H         1 UNK         0.3127 
    106 H106       26.9361    4.5942   -4.9378 H         1 UNK         0.0770 
    107 H107       24.3405    2.9715   -4.7448 H         1 UNK         0.0814 
    108 H108       24.4504    4.7247   -4.6461 H         1 UNK         0.0814 
    109 H109       25.1919    3.7303   -3.4017 H         1 UNK         0.0814 
    110 H110       25.5034    2.0396   -7.0069 H         1 UNK         0.2983 
    111 H111       24.8502    3.7903   -9.1989 H         1 UNK         0.0947 
    112 H112       25.2470    0.7488   -9.0982 H         1 UNK         0.0806 
    113 H113       24.4698    1.6357  -10.4023 H         1 UNK         0.0806 
    114 H114       23.7274    1.5954   -8.8117 H         1 UNK         0.0806 
    115 H115       27.8743    2.6276   -8.1163 H         1 UNK         0.3000 
    116 H116       29.9262    2.4338   -8.8736 H         1 UNK         0.0850 
    117 H117       30.7739    3.9510  -10.6154 H         1 UNK         0.0810 
    118 H118       29.6399    4.8218   -9.5967 H         1 UNK         0.0810 
    119 H119       29.1494    4.2739  -11.2000 H         1 UNK         0.0810 
    120 H120       28.0752    0.4375   -9.5393 H         1 UNK         0.3040 
    121 H121       28.8559   -0.6796  -12.1717 H         1 UNK         0.0766 
    122 H122       27.2862   -2.5073  -11.5291 H         1 UNK         0.0812 
    123 H123       26.4920   -0.9437  -11.4237 H         1 UNK         0.0812 
    124 H124       27.0248   -1.7638   -9.9576 H         1 UNK         0.0812 
    125 H125       29.4730   -0.9670   -8.7134 H         1 UNK         0.3205 
    126 H126       31.5881   -3.0404   -9.1443 H         1 UNK         0.0754 
    127 H127       31.4241   -3.3854   -6.6967 H         1 UNK         0.0769 
    128 H128       29.8436   -3.5884   -7.4098 H         1 UNK         0.0769 
    129 H129       30.2337   -2.0988   -6.5475 H         1 UNK         0.0769 
    130 H130       33.3385   -2.5768   -7.3077 H         1 UNK         0.2981 
    131 H131       34.7480   -0.2106   -7.9872 H         1 UNK         0.0541 
    132 H132       32.6193    1.1593   -4.9465 H         1 UNK         0.3459 
    133 H133       32.1050   -0.1512   -5.9759 H         1 UNK         0.3459 
    134 H134       36.1899   -1.9334   -7.5931 H         1 UNK         0.0612 
    135 H135       36.3522   -1.1128   -6.0833 H         1 UNK         0.0612 
    136 H136       35.4206   -3.5864   -3.4997 H         1 UNK         0.0624 
    137 H137       35.6092   -1.8976   -3.9006 H         1 UNK         0.0624 
@<TRIPOS>BOND
     1    1    2 1    
     2    1   72 1    
     3    1   73 1    
     4    1   74 1    
     5    2    3 2    
     6    2    4 am   BACKBONE|DICT|INTERRES
     7    4    5 1    
     8    4   75 1    
     9    5    6 1    
    10    5   35 1    
    11    5   76 1    
    12    6    7 1    
    13    6   77 1    
    14    6   78 1    
    15    7    8 1    
    16    8    9 1    
    17    8   79 1    
    18    8   80 1    
    19    9   10 ar   
    20    9   14 ar   
    21   10   11 ar   
    22   10   81 1    
    23   11   12 ar   
    24   11   71 1    
    25   12   13 ar   
    26   12   82 1    
    27   13   14 ar   
    28   13   15 1    
    29   14   83 1    
    30   15   16 1    
    31   15   84 1    
    32   15   85 1    
    33   16   17 1    
    34   17   18 1    
    35   17   86 1    
    36   17   87 1    
    37   18   19 1    
    38   18   37 1    
    39   18   88 1    
    40   19   20 am   BACKBONE|DICT|INTERRES
    41   19   89 1    
    42   20   21 2    
    43   20   22 1    
    44   22   23 1    
    45   22   24 1    
    46   22   90 1    
    47   23   91 1    
    48   23   92 1    
    49   23   93 1    
    50   24   25 am   BACKBONE|DICT|INTERRES
    51   24   94 1    
    52   25   26 2    
    53   25   27 1    
    54   27   28 1    
    55   27   29 1    
    56   27   95 1    
    57   28   96 1    
    58   28   97 1    
    59   28   98 1    
    60   29   30 am   BACKBONE|DICT|INTERRES
    61   29   99 1    
    62   30   31 2    
    63   30   32 1    
    64   32   33 1    
    65   32   34 1    
    66   32  100 1    
    67   33  101 1    
    68   33  102 1    
    69   33  103 1    
    70   34   35 am   BACKBONE|DICT|INTERRES
    71   34  104 1    
    72   35   36 2    
    73   37   38 2    
    74   37   39 am   BACKBONE|DICT|INTERRES
    75   39   40 1    
    76   39  105 1    
    77   40   41 1    
    78   40   42 1    
    79   40  106 1    
    80   41  107 1    
    81   41  108 1    
    82   41  109 1    
    83   42   43 2    
    84   42   44 am   BACKBONE|DICT|INTERRES
    85   44   45 1    
    86   44  110 1    
    87   45   46 1    
    88   45   47 1    
    89   45  111 1    
    90   46  112 1    
    91   46  113 1    
    92   46  114 1    
    93   47   48 2    
    94   47   49 am   BACKBONE|DICT|INTERRES
    95   49   50 1    
    96   49  115 1    
    97   50   51 1    
    98   50   52 1    
    99   50  116 1    
   100   51  117 1    
   101   51  118 1    
   102   51  119 1    
   103   52   53 2    
   104   52   54 am   BACKBONE|DICT|INTERRES
   105   54   55 1    
   106   54  120 1    
   107   55   56 1    
   108   55   57 1    
   109   55  121 1    
   110   56  122 1    
   111   56  123 1    
   112   56  124 1    
   113   57   58 2    
   114   57   59 am   BACKBONE|DICT|INTERRES
   115   59   60 1    
   116   59  125 1    
   117   60   61 1    
   118   60   62 1    
   119   60  126 1    
   120   61  127 1    
   121   61  128 1    
   122   61  129 1    
   123   62   63 2    
   124   62   64 am   BACKBONE|DICT|INTERRES
   125   64   65 1    
   126   64  130 1    
   127   65   66 1    
   128   65   69 1    
   129   65  131 1    
   130   66   67 am   BACKBONE|DICT|INTERRES
   131   66   68 2    
   132   67  132 1    
   133   67  133 1    
   134   69   70 1    
   135   69  134 1    
   136   69  135 1    
   137   70   71 1    
   138   71  136 1    
   139   71  137 1    
@<TRIPOS>SUBSTRUCTURE
     1 UNK         1 GROUP             0       ****    0 ROOT    
