@<TRIPOS>MOLECULE
3R137
137   139    1
SMALL
USER_CHARGES


@<TRIPOS>ATOM
      1 CA         24.4855   -4.1770    0.5109 C.3       0 UNK        -0.2020 
      2 C          25.6023   -3.1605    0.6917 C.2       0 UNK         0.4855 
      3 O          25.6376   -2.4586    1.7032 O.2       0 UNK        -0.5197 
      4 N          26.5106   -3.0624   -0.2868 N.am      1 UNK        -0.4892 
      5 CA         27.6630   -2.1488   -0.3128 C.3       1 UNK         0.0835 
      6 C6         28.7683   -2.6658   -1.2713 C.3       12 UNK        -0.0855 
      7 S7         29.3326   -4.3463   -0.8455 S.3       12 UNK        -0.2931 
      8 C8         30.9435   -4.4028   -1.6949 C.3       12 UNK         0.0378 
      9 C9         30.8431   -4.2657   -3.2121 C.ar      12 UNK        -0.0802 
     10 C10        31.7167   -3.4099   -3.8869 C.ar      12 UNK        -0.0944 
     11 C11        31.6975   -3.3212   -5.2816 C.ar      12 UNK        -0.0787 
     12 C12        30.7788   -4.0904   -6.0069 C.ar      12 UNK        -0.0862 
     13 C13        29.8988   -4.9596   -5.3468 C.ar      12 UNK        -0.0733 
     14 C14        29.9392   -5.0379   -3.9502 C.ar      12 UNK        -0.0832 
     15 C15        28.9766   -5.9064   -6.1162 C.3       12 UNK         0.0240 
     16 S16        28.1270   -5.1672   -7.5506 S.3       12 UNK        -0.2522 
     17 C17        26.8565   -4.1283   -6.7522 C.3       12 UNK        -0.0967 
     18 CA         26.5958   -2.8200   -7.5411 C.3       5 UNK         0.0660 
     19 N          25.3417   -2.1715   -7.1392 N.am      5 UNK        -0.4015 
     20 C          24.8265   -1.0777   -7.7221 C.2       4 UNK         0.4946 
     21 O          25.3304   -0.5210   -8.6960 O.2       4 UNK        -0.5353 
     22 CA         23.5506   -0.4712   -7.1134 C.3       4 UNK         0.0277 
     23 CB         22.3092   -0.9924   -7.8551 C.3       4 UNK        -0.1981 
     24 N          23.3791   -0.6797   -5.6719 N.am      4 UNK        -0.4209 
     25 C          24.2447   -0.3199   -4.7141 C.2       3 UNK         0.4942 
     26 O          25.3662    0.1500   -4.9304 O.2       3 UNK        -0.5208 
     27 CA         23.7725   -0.5634   -3.2765 C.3       3 UNK         0.0250 
     28 CB         23.7494   -2.0691   -2.9468 C.3       3 UNK        -0.1990 
     29 N          24.6658    0.1127   -2.3436 N.am      3 UNK        -0.4232 
     30 C          24.3311    0.5769   -1.1352 C.2       2 UNK         0.4993 
     31 O          23.1786    0.5814   -0.6977 O.2       2 UNK        -0.5286 
     32 CA         25.5017    1.0283   -0.2406 C.3       2 UNK         0.0209 
     33 CB         25.0344    1.7268    1.0500 C.3       2 UNK        -0.1931 
     34 N          26.3002   -0.1465    0.1159 N.am      2 UNK        -0.4546 
     35 C          27.2085   -0.7195   -0.6828 C.2       1 UNK         0.5154 
     36 O          27.6084   -0.1882   -1.7193 O.2       1 UNK        -0.5181 
     37 C          27.7968   -1.8588   -7.4505 C.2       5 UNK         0.5014 
     38 O          28.5509   -1.7333   -8.4169 O.2       5 UNK        -0.5248 
     39 N          27.9246   -1.1671   -6.3096 N.am      6 UNK        -0.4434 
     40 CA         28.9996   -0.2081   -6.0709 C.3       6 UNK         0.0363 
     41 CB         29.0679    0.1467   -4.5808 C.3       6 UNK        -0.1936 
     42 C          28.8609    1.0529   -6.9319 C.2       6 UNK         0.5081 
     43 O          29.8730    1.5736   -7.3980 O.2       6 UNK        -0.5248 
     44 N          27.6164    1.4946   -7.1638 N.am      7 UNK        -0.4718 
     45 CA         27.2912    2.6117   -8.0528 C.3       7 UNK         0.0273 
     46 CB         25.8120    2.9945   -7.8885 C.3       7 UNK        -0.1935 
     47 C          27.6223    2.3088   -9.5245 C.2       7 UNK         0.5018 
     48 O          28.1948    3.1650  -10.1987 O.2       7 UNK        -0.5186 
     49 N          27.2825    1.0959   -9.9856 N.am      8 UNK        -0.4240 
     50 CA         27.5866    0.5989  -11.3291 C.3       8 UNK         0.0235 
     51 CB         26.8048   -0.6981  -11.5936 C.3       8 UNK        -0.2000 
     52 C          29.0907    0.3809  -11.5544 C.2       8 UNK         0.4941 
     53 O          29.6020    0.7624  -12.6081 O.2       8 UNK        -0.5273 
     54 N          29.7728   -0.2159  -10.5660 N.am      9 UNK        -0.4262 
     55 CA         31.2203   -0.4427  -10.5861 C.3       9 UNK         0.0264 
     56 CB         31.5924   -1.4373   -9.4757 C.3       9 UNK        -0.1955 
     57 C          32.0450    0.8472  -10.4339 C.2       9 UNK         0.5031 
     58 O          33.1686    0.8982  -10.9361 O.2       9 UNK        -0.5390 
     59 N          31.4880    1.8403   -9.7236 N.am      10 UNK        -0.4204 
     60 CA         32.1097    3.1010   -9.3011 C.3       10 UNK         0.0237 
     61 CB         32.4543    3.9912  -10.5143 C.3       10 UNK        -0.1985 
     62 C          33.3007    2.8765   -8.3469 C.2       10 UNK         0.4970 
     63 O          34.2712    3.6359   -8.3847 O.2       10 UNK        -0.4914 
     64 N          33.2106    1.8256   -7.5217 N.am      11 UNK        -0.4285 
     65 CA         34.2280    1.4376   -6.5385 C.3       11 UNK         0.1007 
     66 C          34.1931    2.3032   -5.2469 C.2       11 UNK         0.5703 
     67 N          35.2408    2.2420   -4.4354 N.am      11 UNK        -0.7361 
     68 O          33.2335    3.0194   -4.9646 O.2       11 UNK        -0.4986 
     69 C69        34.1916   -0.0893   -6.2575 C.3       12 UNK        -0.0947 
     70 S70        32.6218   -0.7024   -5.5588 S.3       12 UNK        -0.2240 
     71 C71        32.7372   -2.4662   -5.9959 C.3       12 UNK         0.0194 
     72 H72        24.5085   -4.9069    1.3196 H         1 UNK         0.0906 
     73 H73        23.5175   -3.6768    0.5301 H         1 UNK         0.0906 
     74 H74        24.5707   -4.7138   -0.4338 H         1 UNK         0.0906 
     75 H75        26.4354   -3.6709   -1.0892 H         1 UNK         0.3140 
     76 H76        28.0895   -2.0964    0.6916 H         1 UNK         0.1085 
     77 H77        28.4140   -2.6787   -2.3043 H         1 UNK         0.0836 
     78 H78        29.6287   -1.9935   -1.2517 H         1 UNK         0.0836 
     79 H79        31.4256   -5.3536   -1.4644 H         1 UNK         0.0731 
     80 H80        31.5846   -3.6253   -1.2762 H         1 UNK         0.0731 
     81 H81        32.4405   -2.8304   -3.3298 H         1 UNK         0.1312 
     82 H82        30.7764   -4.0450   -7.0875 H         1 UNK         0.1406 
     83 H83        29.2863   -5.7270   -3.4316 H         1 UNK         0.1631 
     84 H84        28.2227   -6.3357   -5.4544 H         1 UNK         0.0717 
     85 H85        29.5781   -6.7433   -6.4732 H         1 UNK         0.0717 
     86 H86        25.9430   -4.7229   -6.7004 H         1 UNK         0.0934 
     87 H87        27.1386   -3.9169   -5.7186 H         1 UNK         0.0934 
     88 H88        26.4748   -3.0808   -8.5951 H         1 UNK         0.0739 
     89 H89        24.8556   -2.5642   -6.3474 H         1 UNK         0.3093 
     90 H90        23.6070    0.6074   -7.2701 H         1 UNK         0.0818 
     91 H91        21.4045   -0.4805   -7.5267 H         1 UNK         0.0819 
     92 H92        22.3983   -0.8266   -8.9300 H         1 UNK         0.0819 
     93 H93        22.1658   -2.0628   -7.7018 H         1 UNK         0.0819 
     94 H94        22.4924   -1.0706   -5.3864 H         1 UNK         0.3041 
     95 H95        22.7663   -0.1497   -3.1799 H         1 UNK         0.0784 
     96 H96        23.0767   -2.6147   -3.6095 H         1 UNK         0.0793 
     97 H97        24.7398   -2.5162   -3.0425 H         1 UNK         0.0793 
     98 H98        23.4037   -2.2449   -1.9279 H         1 UNK         0.0793 
     99 H99        25.6333    0.1730   -2.6463 H         1 UNK         0.3024 
    100 H100       26.1103    1.7351   -0.8099 H         1 UNK         0.1171 
    101 H101       25.8826    2.0672    1.6441 H         1 UNK         0.0786 
    102 H102       24.4266    2.6031    0.8209 H         1 UNK         0.0786 
    103 H103       24.4330    1.0650    1.6748 H         1 UNK         0.0786 
    104 H104       25.9710   -0.7013    0.9015 H         1 UNK         0.2977 
    105 H105       27.2179   -1.2512   -5.5918 H         1 UNK         0.3127 
    106 H106       29.9337   -0.6948   -6.3509 H         1 UNK         0.0770 
    107 H107       28.1471    0.6192   -4.2368 H         1 UNK         0.0814 
    108 H108       29.8862    0.8405   -4.3835 H         1 UNK         0.0814 
    109 H109       29.2435   -0.7395   -3.9706 H         1 UNK         0.0814 
    110 H110       26.8441    1.0040   -6.7315 H         1 UNK         0.2983 
    111 H111       27.8994    3.4659   -7.7465 H         1 UNK         0.0947 
    112 H112       25.5722    3.8769   -8.4831 H         1 UNK         0.0806 
    113 H113       25.5732    3.2276   -6.8506 H         1 UNK         0.0806 
    114 H114       25.1481    2.1946   -8.2153 H         1 UNK         0.0806 
    115 H115       26.7520    0.4714   -9.3806 H         1 UNK         0.3000 
    116 H116       27.2497    1.3503  -12.0465 H         1 UNK         0.0850 
    117 H117       27.0114   -1.0838  -12.5928 H         1 UNK         0.0810 
    118 H118       25.7295   -0.5320  -11.5253 H         1 UNK         0.0810 
    119 H119       27.0662   -1.4798  -10.8789 H         1 UNK         0.0810 
    120 H120       29.2650   -0.5721   -9.7582 H         1 UNK         0.3040 
    121 H121       31.4812   -0.8905  -11.5474 H         1 UNK         0.0766 
    122 H122       31.3229   -1.0540   -8.4909 H         1 UNK         0.0812 
    123 H123       32.6650   -1.6359   -9.4696 H         1 UNK         0.0812 
    124 H124       31.0848   -2.3926   -9.6111 H         1 UNK         0.0812 
    125 H125       30.5914    1.6547   -9.2845 H         1 UNK         0.3205 
    126 H126       31.3524    3.6249   -8.7159 H         1 UNK         0.0754 
    127 H127       32.7755    4.9825  -10.1925 H         1 UNK         0.0769 
    128 H128       31.5883    4.1264  -11.1626 H         1 UNK         0.0769 
    129 H129       33.2605    3.5678  -11.1139 H         1 UNK         0.0769 
    130 H130       32.3445    1.3061   -7.4913 H         1 UNK         0.2981 
    131 H131       35.1980    1.6391   -6.9975 H         1 UNK         0.0541 
    132 H132       36.0346    1.6589   -4.6495 H         1 UNK         0.3459 
    133 H133       35.2368    2.7916   -3.5904 H         1 UNK         0.3459 
    134 H134       35.0009   -0.3755   -5.5839 H         1 UNK         0.0612 
    135 H135       34.3828   -0.6239   -7.1894 H         1 UNK         0.0612 
    136 H136       32.6523   -2.5747   -7.0769 H         1 UNK         0.0624 
    137 H137       33.7289   -2.8334   -5.7276 H         1 UNK         0.0624 
@<TRIPOS>BOND
     1    1    2 1    
     2    1   72 1    
     3    1   73 1    
     4    1   74 1    
     5    2    3 2    
     6    2    4 am   BACKBONE|DICT|INTERRES
     7    4    5 1    
     8    4   75 1    
     9    5    6 1    
    10    5   35 1    
    11    5   76 1    
    12    6    7 1    
    13    6   77 1    
    14    6   78 1    
    15    7    8 1    
    16    8    9 1    
    17    8   79 1    
    18    8   80 1    
    19    9   10 ar   
    20    9   14 ar   
    21   10   11 ar   
    22   10   81 1    
    23   11   12 ar   
    24   11   71 1    
    25   12   13 ar   
    26   12   82 1    
    27   13   14 ar   
    28   13   15 1    
    29   14   83 1    
    30   15   16 1    
    31   15   84 1    
    32   15   85 1    
    33   16   17 1    
    34   17   18 1    
    35   17   86 1    
    36   17   87 1    
    37   18   19 1    
    38   18   37 1    
    39   18   88 1    
    40   19   20 am   BACKBONE|DICT|INTERRES
    41   19   89 1    
    42   20   21 2    
    43   20   22 1    
    44   22   23 1    
    45   22   24 1    
    46   22   90 1    
    47   23   91 1    
    48   23   92 1    
    49   23   93 1    
    50   24   25 am   BACKBONE|DICT|INTERRES
    51   24   94 1    
    52   25   26 2    
    53   25   27 1    
    54   27   28 1    
    55   27   29 1    
    56   27   95 1    
    57   28   96 1    
    58   28   97 1    
    59   28   98 1    
    60   29   30 am   BACKBONE|DICT|INTERRES
    61   29   99 1    
    62   30   31 2    
    63   30   32 1    
    64   32   33 1    
    65   32   34 1    
    66   32  100 1    
    67   33  101 1    
    68   33  102 1    
    69   33  103 1    
    70   34   35 am   BACKBONE|DICT|INTERRES
    71   34  104 1    
    72   35   36 2    
    73   37   38 2    
    74   37   39 am   BACKBONE|DICT|INTERRES
    75   39   40 1    
    76   39  105 1    
    77   40   41 1    
    78   40   42 1    
    79   40  106 1    
    80   41  107 1    
    81   41  108 1    
    82   41  109 1    
    83   42   43 2    
    84   42   44 am   BACKBONE|DICT|INTERRES
    85   44   45 1    
    86   44  110 1    
    87   45   46 1    
    88   45   47 1    
    89   45  111 1    
    90   46  112 1    
    91   46  113 1    
    92   46  114 1    
    93   47   48 2    
    94   47   49 am   BACKBONE|DICT|INTERRES
    95   49   50 1    
    96   49  115 1    
    97   50   51 1    
    98   50   52 1    
    99   50  116 1    
   100   51  117 1    
   101   51  118 1    
   102   51  119 1    
   103   52   53 2    
   104   52   54 am   BACKBONE|DICT|INTERRES
   105   54   55 1    
   106   54  120 1    
   107   55   56 1    
   108   55   57 1    
   109   55  121 1    
   110   56  122 1    
   111   56  123 1    
   112   56  124 1    
   113   57   58 2    
   114   57   59 am   BACKBONE|DICT|INTERRES
   115   59   60 1    
   116   59  125 1    
   117   60   61 1    
   118   60   62 1    
   119   60  126 1    
   120   61  127 1    
   121   61  128 1    
   122   61  129 1    
   123   62   63 2    
   124   62   64 am   BACKBONE|DICT|INTERRES
   125   64   65 1    
   126   64  130 1    
   127   65   66 1    
   128   65   69 1    
   129   65  131 1    
   130   66   67 am   BACKBONE|DICT|INTERRES
   131   66   68 2    
   132   67  132 1    
   133   67  133 1    
   134   69   70 1    
   135   69  134 1    
   136   69  135 1    
   137   70   71 1    
   138   71  136 1    
   139   71  137 1    
@<TRIPOS>SUBSTRUCTURE
     1 UNK         1 GROUP             0       ****    0 ROOT    
