@<TRIPOS>MOLECULE
3R137
137   139    1
SMALL
USER_CHARGES


@<TRIPOS>ATOM
      1 CA         23.4915   -5.9493   -2.2962 C.3       0 UNK        -0.2020 
      2 C          24.7535   -5.1015   -2.2533 C.2       0 UNK         0.4855 
      3 O          25.1627   -4.5716   -3.2846 O.2       0 UNK        -0.5197 
      4 N          25.3576   -4.9600   -1.0650 N.am      1 UNK        -0.4892 
      5 CA         26.5937   -4.2146   -0.7850 C.3       1 UNK         0.0835 
      6 C6         27.8665   -4.9478   -1.2963 C.3       12 UNK        -0.0855 
      7 S7         29.2480   -4.7683   -0.1190 S.3       12 UNK        -0.2931 
      8 C8         30.7001   -4.7941   -1.2226 C.3       12 UNK         0.0378 
      9 C9         30.9747   -3.4762   -1.9449 C.ar      12 UNK        -0.0802 
     10 C10        31.4676   -3.5047   -3.2527 C.ar      12 UNK        -0.0944 
     11 C11        31.7952   -2.3204   -3.9192 C.ar      12 UNK        -0.0787 
     12 C12        31.6351   -1.0968   -3.2644 C.ar      12 UNK        -0.0862 
     13 C13        31.1331   -1.0459   -1.9601 C.ar      12 UNK        -0.0733 
     14 C14        30.8115   -2.2403   -1.3059 C.ar      12 UNK        -0.0832 
     15 C15        30.9660    0.2872   -1.2328 C.3       12 UNK         0.0240 
     16 S16        30.1856    1.5957   -2.2421 S.3       12 UNK        -0.2522 
     17 C17        28.6130    0.8094   -2.7218 C.3       12 UNK        -0.0967 
     18 CA         28.5456    0.5259   -4.2470 C.3       5 UNK         0.0660 
     19 N          27.8267   -0.7181   -4.5403 N.am      5 UNK        -0.4015 
     20 C          27.7227   -1.2754   -5.7561 C.2       4 UNK         0.4946 
     21 O          28.2611   -0.8262   -6.7668 O.2       4 UNK        -0.5353 
     22 CA         26.8198   -2.5139   -5.8792 C.3       4 UNK         0.0277 
     23 CB         27.5703   -3.7867   -5.4602 C.3       4 UNK        -0.1981 
     24 N          25.5918   -2.3838   -5.0925 N.am      4 UNK        -0.4209 
     25 C          24.6235   -1.4907   -5.3452 C.2       3 UNK         0.4942 
     26 O          24.6260   -0.7302   -6.3121 O.2       3 UNK        -0.5208 
     27 CA         23.4820   -1.3925   -4.3214 C.3       3 UNK         0.0250 
     28 CB         22.4603   -2.5237   -4.5201 C.3       3 UNK        -0.1990 
     29 N          23.9702   -1.3908   -2.9404 N.am      3 UNK        -0.4232 
     30 C          24.7291   -0.4220   -2.4069 C.2       2 UNK         0.4993 
     31 O          25.0796    0.5880   -3.0147 O.2       2 UNK        -0.5286 
     32 CA         25.2132   -0.6272   -0.9628 C.3       2 UNK         0.0209 
     33 CB         24.1796   -0.0838    0.0362 C.3       2 UNK        -0.1931 
     34 N          25.5156   -2.0260   -0.6474 N.am      2 UNK        -0.4546 
     35 C          26.4899   -2.7391   -1.2311 C.2       1 UNK         0.5154 
     36 O          27.2214   -2.2871   -2.1144 O.2       1 UNK        -0.5181 
     37 C          27.9733    1.7356   -5.0186 C.2       5 UNK         0.5014 
     38 O          28.7363    2.5248   -5.5773 O.2       5 UNK        -0.5248 
     39 N          26.6387    1.8547   -5.0398 N.am      6 UNK        -0.4434 
     40 CA         25.9045    2.9239   -5.7171 C.3       6 UNK         0.0363 
     41 CB         24.4719    2.9715   -5.1605 C.3       6 UNK        -0.1936 
     42 C          25.8720    2.7998   -7.2514 C.2       6 UNK         0.5081 
     43 O          25.5697    3.7950   -7.9111 O.2       6 UNK        -0.5248 
     44 N          26.1402    1.6034   -7.7968 N.am      7 UNK        -0.4718 
     45 CA         26.0484    1.3019   -9.2295 C.3       7 UNK         0.0273 
     46 CB         26.2322   -0.2068   -9.4647 C.3       7 UNK        -0.1935 
     47 C          27.0324    2.1078  -10.0924 C.2       7 UNK         0.5018 
     48 O          26.6186    2.6754  -11.1046 O.2       7 UNK        -0.5186 
     49 N          28.3011    2.1525   -9.6705 N.am      8 UNK        -0.4240 
     50 CA         29.4060    2.8543  -10.3208 C.3       8 UNK         0.0235 
     51 CB         29.7137    2.2379  -11.7043 C.3       8 UNK        -0.2000 
     52 C          30.6428    2.7402   -9.4259 C.2       8 UNK         0.4941 
     53 O          30.7099    1.8364   -8.5902 O.2       8 UNK        -0.5273 
     54 N          31.6454    3.5943   -9.6765 N.am      9 UNK        -0.4262 
     55 CA         32.9759    3.5170   -9.0543 C.3       9 UNK         0.0264 
     56 CB         33.7965    4.7564   -9.4463 C.3       9 UNK        -0.1955 
     57 C          33.7425    2.2258   -9.4095 C.2       9 UNK         0.5031 
     58 O          34.5793    1.7795   -8.6245 O.2       9 UNK        -0.5390 
     59 N          33.4117    1.6333  -10.5654 N.am      10 UNK        -0.4204 
     60 CA         33.8704    0.3191  -11.0203 C.3       10 UNK         0.0237 
     61 CB         33.7851    0.2792  -12.5568 C.3       10 UNK        -0.1985 
     62 C          33.0883   -0.8586  -10.3968 C.2       10 UNK         0.4970 
     63 O          33.3698   -2.0038  -10.7532 O.2       10 UNK        -0.4914 
     64 N          32.1335   -0.5770   -9.4979 N.am      11 UNK        -0.4285 
     65 CA         31.2174   -1.5335   -8.8621 C.3       11 UNK         0.1007 
     66 C          30.1018   -2.0478   -9.8208 C.2       11 UNK         0.5703 
     67 N          29.3189   -3.0321   -9.4002 N.am      11 UNK        -0.7361 
     68 O          29.9159   -1.5508  -10.9305 O.2       11 UNK        -0.4986 
     69 C69        31.9672   -2.6644   -8.0914 C.3       12 UNK        -0.0947 
     70 S70        31.1608   -3.0691   -6.5101 S.3       12 UNK        -0.2240 
     71 C71        32.3525   -2.3614   -5.3338 C.3       12 UNK         0.0194 
     72 H72        23.5988   -6.7406   -3.0378 H         1 UNK         0.0906 
     73 H73        23.2779   -6.4145   -1.3340 H         1 UNK         0.0906 
     74 H74        22.6354   -5.3357   -2.5750 H         1 UNK         0.0906 
     75 H75        24.9474   -5.4151   -0.2604 H         1 UNK         0.3140 
     76 H76        26.6447   -4.1830    0.3051 H         1 UNK         0.1085 
     77 H77        27.6742   -6.0179   -1.3887 H         1 UNK         0.0836 
     78 H78        28.1629   -4.6216   -2.2939 H         1 UNK         0.0836 
     79 H79        30.5800   -5.6093   -1.9381 H         1 UNK         0.0731 
     80 H80        31.5790   -5.0393   -0.6252 H         1 UNK         0.0731 
     81 H81        31.6106   -4.4518   -3.7551 H         1 UNK         0.1312 
     82 H82        31.9011   -0.1789   -3.7702 H         1 UNK         0.1406 
     83 H83        30.4452   -2.2090   -0.2891 H         1 UNK         0.1631 
     84 H84        31.9485    0.6340   -0.9106 H         1 UNK         0.0717 
     85 H85        30.3729    0.1573   -0.3261 H         1 UNK         0.0717 
     86 H86        28.5204   -0.1166   -2.1558 H         1 UNK         0.0934 
     87 H87        27.7817    1.4308   -2.3822 H         1 UNK         0.0934 
     88 H88        29.5585    0.3646   -4.6214 H         1 UNK         0.0739 
     89 H89        27.4070   -1.1994   -3.7496 H         1 UNK         0.3093 
     90 H90        26.5332   -2.6164   -6.9281 H         1 UNK         0.0818 
     91 H91        28.4150   -3.9745   -6.1215 H         1 UNK         0.0819 
     92 H92        27.9599   -3.7079   -4.4452 H         1 UNK         0.0819 
     93 H93        26.9250   -4.6640   -5.5050 H         1 UNK         0.0819 
     94 H94        25.4895   -3.0155   -4.3001 H         1 UNK         0.3041 
     95 H95        22.9700   -0.4425   -4.4901 H         1 UNK         0.0784 
     96 H96        22.0493   -2.5000   -5.5303 H         1 UNK         0.0793 
     97 H97        22.9076   -3.5073   -4.3767 H         1 UNK         0.0793 
     98 H98        21.6228   -2.4299   -3.8286 H         1 UNK         0.0793 
     99 H99        23.7608   -2.2013   -2.3772 H         1 UNK         0.3024 
    100 H100       26.1353   -0.0531   -0.8468 H         1 UNK         0.1171 
    101 H101       24.5504   -0.1378    1.0600 H         1 UNK         0.0786 
    102 H102       23.9534    0.9638   -0.1691 H         1 UNK         0.0786 
    103 H103       23.2398   -0.6353   -0.0113 H         1 UNK         0.0786 
    104 H104       24.9373   -2.4738    0.0493 H         1 UNK         0.2977 
    105 H105       26.0801    1.2040   -4.4906 H         1 UNK         0.3127 
    106 H106       26.3919    3.8720   -5.4801 H         1 UNK         0.0770 
    107 H107       23.9399    2.0372   -5.3459 H         1 UNK         0.0814 
    108 H108       23.8960    3.7742   -5.6228 H         1 UNK         0.0814 
    109 H109       24.4696    3.1497   -4.0850 H         1 UNK         0.0814 
    110 H110       26.3543    0.8299   -7.1798 H         1 UNK         0.2983 
    111 H111       25.0392    1.5693   -9.5500 H         1 UNK         0.0947 
    112 H112       26.1043   -0.4541  -10.5193 H         1 UNK         0.0806 
    113 H113       25.5015   -0.7902   -8.9047 H         1 UNK         0.0806 
    114 H114       27.2267   -0.5456   -9.1732 H         1 UNK         0.0806 
    115 H115       28.5607    1.6734   -8.8147 H         1 UNK         0.3000 
    116 H116       29.1385    3.9074  -10.4272 H         1 UNK         0.0850 
    117 H117       30.5607    2.7317  -12.1814 H         1 UNK         0.0810 
    118 H118       28.8731    2.3353  -12.3905 H         1 UNK         0.0810 
    119 H119       29.9548    1.1767  -11.6252 H         1 UNK         0.0810 
    120 H120       31.5128    4.3137  -10.3739 H         1 UNK         0.3040 
    121 H121       32.8376    3.5251   -7.9709 H         1 UNK         0.0766 
    122 H122       33.9526    4.8153  -10.5242 H         1 UNK         0.0812 
    123 H123       33.3057    5.6757   -9.1259 H         1 UNK         0.0812 
    124 H124       34.7806    4.7367   -8.9756 H         1 UNK         0.0812 
    125 H125       32.7256    2.0915  -11.1462 H         1 UNK         0.3205 
    126 H126       34.9170    0.1958  -10.7339 H         1 UNK         0.0754 
    127 H127       34.1823   -0.6582  -12.9488 H         1 UNK         0.0769 
    128 H128       34.3645    1.0850  -13.0083 H         1 UNK         0.0769 
    129 H129       32.7553    0.3674  -12.9060 H         1 UNK         0.0769 
    130 H130       31.9313    0.3913   -9.2766 H         1 UNK         0.2981 
    131 H131       30.6883   -0.9169   -8.1346 H         1 UNK         0.0541 
    132 H132       29.4523   -3.4238   -8.4809 H         1 UNK         0.3459 
    133 H133       28.5858   -3.3732  -10.0005 H         1 UNK         0.3459 
    134 H134       32.9959   -2.3693   -7.8790 H         1 UNK         0.0612 
    135 H135       32.0496   -3.5708   -8.6939 H         1 UNK         0.0612 
    136 H136       33.2678   -2.9547   -5.3465 H         1 UNK         0.0624 
    137 H137       32.6236   -1.3580   -5.6666 H         1 UNK         0.0624 
@<TRIPOS>BOND
     1    1    2 1    
     2    1   72 1    
     3    1   73 1    
     4    1   74 1    
     5    2    3 2    
     6    2    4 am   BACKBONE|DICT|INTERRES
     7    4    5 1    
     8    4   75 1    
     9    5    6 1    
    10    5   35 1    
    11    5   76 1    
    12    6    7 1    
    13    6   77 1    
    14    6   78 1    
    15    7    8 1    
    16    8    9 1    
    17    8   79 1    
    18    8   80 1    
    19    9   10 ar   
    20    9   14 ar   
    21   10   11 ar   
    22   10   81 1    
    23   11   12 ar   
    24   11   71 1    
    25   12   13 ar   
    26   12   82 1    
    27   13   14 ar   
    28   13   15 1    
    29   14   83 1    
    30   15   16 1    
    31   15   84 1    
    32   15   85 1    
    33   16   17 1    
    34   17   18 1    
    35   17   86 1    
    36   17   87 1    
    37   18   19 1    
    38   18   37 1    
    39   18   88 1    
    40   19   20 am   BACKBONE|DICT|INTERRES
    41   19   89 1    
    42   20   21 2    
    43   20   22 1    
    44   22   23 1    
    45   22   24 1    
    46   22   90 1    
    47   23   91 1    
    48   23   92 1    
    49   23   93 1    
    50   24   25 am   BACKBONE|DICT|INTERRES
    51   24   94 1    
    52   25   26 2    
    53   25   27 1    
    54   27   28 1    
    55   27   29 1    
    56   27   95 1    
    57   28   96 1    
    58   28   97 1    
    59   28   98 1    
    60   29   30 am   BACKBONE|DICT|INTERRES
    61   29   99 1    
    62   30   31 2    
    63   30   32 1    
    64   32   33 1    
    65   32   34 1    
    66   32  100 1    
    67   33  101 1    
    68   33  102 1    
    69   33  103 1    
    70   34   35 am   BACKBONE|DICT|INTERRES
    71   34  104 1    
    72   35   36 2    
    73   37   38 2    
    74   37   39 am   BACKBONE|DICT|INTERRES
    75   39   40 1    
    76   39  105 1    
    77   40   41 1    
    78   40   42 1    
    79   40  106 1    
    80   41  107 1    
    81   41  108 1    
    82   41  109 1    
    83   42   43 2    
    84   42   44 am   BACKBONE|DICT|INTERRES
    85   44   45 1    
    86   44  110 1    
    87   45   46 1    
    88   45   47 1    
    89   45  111 1    
    90   46  112 1    
    91   46  113 1    
    92   46  114 1    
    93   47   48 2    
    94   47   49 am   BACKBONE|DICT|INTERRES
    95   49   50 1    
    96   49  115 1    
    97   50   51 1    
    98   50   52 1    
    99   50  116 1    
   100   51  117 1    
   101   51  118 1    
   102   51  119 1    
   103   52   53 2    
   104   52   54 am   BACKBONE|DICT|INTERRES
   105   54   55 1    
   106   54  120 1    
   107   55   56 1    
   108   55   57 1    
   109   55  121 1    
   110   56  122 1    
   111   56  123 1    
   112   56  124 1    
   113   57   58 2    
   114   57   59 am   BACKBONE|DICT|INTERRES
   115   59   60 1    
   116   59  125 1    
   117   60   61 1    
   118   60   62 1    
   119   60  126 1    
   120   61  127 1    
   121   61  128 1    
   122   61  129 1    
   123   62   63 2    
   124   62   64 am   BACKBONE|DICT|INTERRES
   125   64   65 1    
   126   64  130 1    
   127   65   66 1    
   128   65   69 1    
   129   65  131 1    
   130   66   67 am   BACKBONE|DICT|INTERRES
   131   66   68 2    
   132   67  132 1    
   133   67  133 1    
   134   69   70 1    
   135   69  134 1    
   136   69  135 1    
   137   70   71 1    
   138   71  136 1    
   139   71  137 1    
@<TRIPOS>SUBSTRUCTURE
     1 UNK         1 GROUP             0       ****    0 ROOT    
