@<TRIPOS>MOLECULE
3R137
137   139    1
SMALL
USER_CHARGES


@<TRIPOS>ATOM
      1 CA         26.1018   -1.9354    5.0198 C.3       0 UNK        -0.2020 
      2 C          25.9175   -1.5835    3.5511 C.2       0 UNK         0.4855 
      3 O          24.9920   -0.8470    3.2127 O.2       0 UNK        -0.5197 
      4 N          26.7966   -2.0981    2.6823 N.am      1 UNK        -0.4892 
      5 CA         26.7541   -1.9382    1.2239 C.3       1 UNK         0.0835 
      6 C6         28.1085   -2.3886    0.6173 C.3       12 UNK        -0.0855 
      7 S7         28.3575   -1.9066   -1.1222 S.3       12 UNK        -0.2931 
      8 C8         30.0114   -2.6101   -1.3983 C.3       12 UNK         0.0378 
      9 C9         30.3782   -2.6210   -2.8738 C.ar      12 UNK        -0.0802 
     10 C10        31.2007   -1.6260   -3.4115 C.ar      12 UNK        -0.0944 
     11 C11        31.5679   -1.6653   -4.7605 C.ar      12 UNK        -0.0787 
     12 C12        31.1031   -2.7035   -5.5738 C.ar      12 UNK        -0.0862 
     13 C13        30.2849   -3.7048   -5.0450 C.ar      12 UNK        -0.0733 
     14 C14        29.9203   -3.6541   -3.6966 C.ar      12 UNK        -0.0832 
     15 C15        29.8279   -4.8690   -5.9092 C.3       12 UNK         0.0240 
     16 S16        28.1736   -4.5861   -6.6069 S.3       12 UNK        -0.2522 
     17 C17        28.5501   -3.7338   -8.1818 C.3       12 UNK        -0.0967 
     18 CA         27.7768   -2.4070   -8.3912 C.3       5 UNK         0.0660 
     19 N          26.3579   -2.5453   -8.0540 N.am      5 UNK        -0.4015 
     20 C          25.4021   -1.6371   -8.2757 C.2       4 UNK         0.4946 
     21 O          25.6018   -0.5656   -8.8475 O.2       4 UNK        -0.5353 
     22 CA         24.0001   -1.9336   -7.7103 C.3       4 UNK         0.0277 
     23 CB         23.7877   -3.4047   -7.2836 C.3       4 UNK        -0.1981 
     24 N          23.6691   -1.0272   -6.6026 N.am      4 UNK        -0.4209 
     25 C          24.3755   -0.8371   -5.4768 C.2       3 UNK         0.4942 
     26 O          25.4384   -1.4139   -5.2341 O.2       3 UNK        -0.5208 
     27 CA         23.8448    0.2270   -4.4934 C.3       3 UNK         0.0250 
     28 CB         22.3043    0.3569   -4.4915 C.3       3 UNK        -0.1990 
     29 N          24.3572    0.0520   -3.1288 N.am      3 UNK        -0.4232 
     30 C          24.1418   -0.9837   -2.3053 C.2       2 UNK         0.4993 
     31 O          23.4251   -1.9547   -2.5683 O.2       2 UNK        -0.5286 
     32 CA         24.8159   -0.8901   -0.9297 C.3       2 UNK         0.0209 
     33 CB         24.0994    0.1502   -0.0463 C.3       2 UNK        -0.1931 
     34 N          24.7645   -2.2083   -0.2977 N.am      2 UNK        -0.4546 
     35 C          25.5636   -2.7416    0.6367 C.2       1 UNK         0.5154 
     36 O          25.3831   -3.8933    1.0377 O.2       1 UNK        -0.5181 
     37 C          28.4696   -1.2067   -7.7081 C.2       5 UNK         0.5014 
     38 O          29.3963   -0.6439   -8.2967 O.2       5 UNK        -0.5248 
     39 N          28.0000   -0.7997   -6.5190 N.am      6 UNK        -0.4434 
     40 CA         28.4796    0.3986   -5.8280 C.3       6 UNK         0.0363 
     41 CB         28.1428    0.3086   -4.3325 C.3       6 UNK        -0.1936 
     42 C          27.9046    1.6891   -6.4361 C.2       6 UNK         0.5081 
     43 O          28.6007    2.7030   -6.4506 O.2       6 UNK        -0.5248 
     44 N          26.6662    1.6327   -6.9515 N.am      7 UNK        -0.4718 
     45 CA         26.0113    2.7462   -7.6496 C.3       7 UNK         0.0273 
     46 CB         24.4882    2.5370   -7.6819 C.3       7 UNK        -0.1935 
     47 C          26.5669    2.9317   -9.0697 C.2       7 UNK         0.5018 
     48 O          26.7659    4.0672   -9.5015 O.2       7 UNK        -0.5186 
     49 N          26.8510    1.8109   -9.7483 N.am      8 UNK        -0.4240 
     50 CA         27.5523    1.7562  -11.0345 C.3       8 UNK         0.0235 
     51 CB         27.4017    0.3443  -11.6234 C.3       8 UNK        -0.2000 
     52 C          29.0435    2.1355  -10.9370 C.2       8 UNK         0.4941 
     53 O          29.6566    2.4037  -11.9707 O.2       8 UNK        -0.5273 
     54 N          29.5897    2.1438   -9.7108 N.am      9 UNK        -0.4262 
     55 CA         30.9730    2.4483   -9.3395 C.3       9 UNK         0.0264 
     56 CB         31.3194    3.9208   -9.6464 C.3       9 UNK        -0.1955 
     57 C          31.9738    1.4490   -9.9443 C.2       9 UNK         0.5031 
     58 O          33.0067    1.8543  -10.4825 O.2       9 UNK        -0.5390 
     59 N          31.6684    0.1488   -9.8114 N.am      10 UNK        -0.4204 
     60 CA         32.4963   -0.9674  -10.2914 C.3       10 UNK         0.0237 
     61 CB         31.7410   -2.2862  -10.0659 C.3       10 UNK        -0.1985 
     62 C          33.8960   -1.0350   -9.6482 C.2       10 UNK         0.4970 
     63 O          34.8059   -1.6196  -10.2371 O.2       10 UNK        -0.4914 
     64 N          34.0396   -0.4207   -8.4686 N.am      11 UNK        -0.4285 
     65 CA         35.3062   -0.2024   -7.7591 C.3       11 UNK         0.1007 
     66 C          36.2331    0.8623   -8.4187 C.2       11 UNK         0.5703 
     67 N          35.7753    1.6549   -9.3826 N.am      11 UNK        -0.7361 
     68 O          37.4007    0.9654   -8.0499 O.2       11 UNK        -0.4986 
     69 C69        35.0554    0.1323   -6.2645 C.3       12 UNK        -0.0947 
     70 S70        34.2051   -1.2161   -5.3801 S.3       12 UNK        -0.2240 
     71 C71        32.4910   -0.6069   -5.3389 C.3       12 UNK         0.0194 
     72 H72        26.9648   -2.5812    5.1809 H         1 UNK         0.0906 
     73 H73        26.2428   -1.0289    5.6079 H         1 UNK         0.0906 
     74 H74        25.2181   -2.4508    5.3952 H         1 UNK         0.0906 
     75 H75        27.5110   -2.7237    3.0270 H         1 UNK         0.3140 
     76 H76        26.6257   -0.8736    1.0300 H         1 UNK         0.1085 
     77 H77        28.9282   -1.9475    1.1876 H         1 UNK         0.0836 
     78 H78        28.2296   -3.4704    0.7072 H         1 UNK         0.0836 
     79 H79        30.0447   -3.6299   -1.0114 H         1 UNK         0.0731 
     80 H80        30.7451   -2.0407   -0.8254 H         1 UNK         0.0731 
     81 H81        31.5659   -0.8295   -2.7777 H         1 UNK         0.1312 
     82 H82        31.3984   -2.7412   -6.6126 H         1 UNK         0.1406 
     83 H83        29.2878   -4.4279   -3.2824 H         1 UNK         0.1631 
     84 H84        29.7951   -5.7764   -5.3043 H         1 UNK         0.0717 
     85 H85        30.5469   -5.0700   -6.7048 H         1 UNK         0.0717 
     86 H86        29.6247   -3.5801   -8.2841 H         1 UNK         0.0934 
     87 H87        28.2873   -4.4250   -8.9842 H         1 UNK         0.0934 
     88 H88        27.8115   -2.1895   -9.4601 H         1 UNK         0.0739 
     89 H89        26.1205   -3.3720   -7.5242 H         1 UNK         0.3093 
     90 H90        23.2975   -1.7172   -8.5165 H         1 UNK         0.0818 
     91 H91        22.7518   -3.5764   -6.9907 H         1 UNK         0.0819 
     92 H92        24.0019   -4.0907   -8.1044 H         1 UNK         0.0819 
     93 H93        24.4140   -3.6886   -6.4368 H         1 UNK         0.0819 
     94 H94        22.8288   -0.4809   -6.7288 H         1 UNK         0.3041 
     95 H95        24.2566    1.1776   -4.8317 H         1 UNK         0.0784 
     96 H96        21.9306    0.7301   -5.4455 H         1 UNK         0.0793 
     97 H97        21.8163   -0.5988   -4.2954 H         1 UNK         0.0793 
     98 H98        21.9700    1.0603   -3.7286 H         1 UNK         0.0793 
     99 H99        24.9689    0.7887   -2.8070 H         1 UNK         0.3024 
    100 H100       25.8499   -0.5886   -1.0978 H         1 UNK         0.1171 
    101 H101       24.6032    0.2925    0.9076 H         1 UNK         0.0786 
    102 H102       24.0644    1.1272   -0.5297 H         1 UNK         0.0786 
    103 H103       23.0703   -0.1445    0.1634 H         1 UNK         0.0786 
    104 H104       24.0469   -2.7946   -0.7065 H         1 UNK         0.2977 
    105 H105       27.2190   -1.2914   -6.0913 H         1 UNK         0.3127 
    106 H106       29.5670    0.4377   -5.9221 H         1 UNK         0.0770 
    107 H107       27.0714    0.3769   -4.1504 H         1 UNK         0.0814 
    108 H108       28.6200    1.1168   -3.7772 H         1 UNK         0.0814 
    109 H109       28.4927   -0.6305   -3.9056 H         1 UNK         0.0814 
    110 H110       26.1956    0.7388   -6.9754 H         1 UNK         0.2983 
    111 H111       26.2121    3.6675   -7.0976 H         1 UNK         0.0947 
    112 H112       23.9998    3.3342   -8.2442 H         1 UNK         0.0806 
    113 H113       24.0629    2.5532   -6.6799 H         1 UNK         0.0806 
    114 H114       24.2125    1.5943   -8.1544 H         1 UNK         0.0806 
    115 H115       26.5560    0.9206   -9.3499 H         1 UNK         0.3000 
    116 H116       27.0750    2.4678  -11.7114 H         1 UNK         0.0850 
    117 H117       27.8420    0.2876  -12.6198 H         1 UNK         0.0810 
    118 H118       26.3533    0.0594  -11.7145 H         1 UNK         0.0810 
    119 H119       27.9004   -0.4017  -11.0048 H         1 UNK         0.0810 
    120 H120       28.9902    1.8728   -8.9438 H         1 UNK         0.3040 
    121 H121       31.0300    2.3186   -8.2575 H         1 UNK         0.0766 
    122 H122       31.3316    4.1208  -10.7182 H         1 UNK         0.0812 
    123 H123       32.3054    4.1784   -9.2577 H         1 UNK         0.0812 
    124 H124       30.6019    4.6000   -9.1859 H         1 UNK         0.0812 
    125 H125       30.8037   -0.1004   -9.3298 H         1 UNK         0.3205 
    126 H126       32.6385   -0.8302  -11.3652 H         1 UNK         0.0754 
    127 H127       32.2948   -3.1305  -10.4787 H         1 UNK         0.0769 
    128 H128       30.7622   -2.2732  -10.5462 H         1 UNK         0.0769 
    129 H129       31.5933   -2.4805   -9.0040 H         1 UNK         0.0769 
    130 H130       33.2319    0.0327   -8.0742 H         1 UNK         0.2981 
    131 H131       35.8627   -1.1408   -7.7979 H         1 UNK         0.0541 
    132 H132       34.8168    1.5950   -9.7107 H         1 UNK         0.3459 
    133 H133       36.3986    2.3309   -9.7939 H         1 UNK         0.3459 
    134 H134       36.0020    0.3019   -5.7479 H         1 UNK         0.0612 
    135 H135       34.4856    1.0579   -6.1632 H         1 UNK         0.0612 
    136 H136       32.4439    0.3090   -4.7478 H         1 UNK         0.0624 
    137 H137       32.1608   -0.3470   -6.3451 H         1 UNK         0.0624 
@<TRIPOS>BOND
     1    1    2 1    
     2    1   72 1    
     3    1   73 1    
     4    1   74 1    
     5    2    3 2    
     6    2    4 am   BACKBONE|DICT|INTERRES
     7    4    5 1    
     8    4   75 1    
     9    5    6 1    
    10    5   35 1    
    11    5   76 1    
    12    6    7 1    
    13    6   77 1    
    14    6   78 1    
    15    7    8 1    
    16    8    9 1    
    17    8   79 1    
    18    8   80 1    
    19    9   10 ar   
    20    9   14 ar   
    21   10   11 ar   
    22   10   81 1    
    23   11   12 ar   
    24   11   71 1    
    25   12   13 ar   
    26   12   82 1    
    27   13   14 ar   
    28   13   15 1    
    29   14   83 1    
    30   15   16 1    
    31   15   84 1    
    32   15   85 1    
    33   16   17 1    
    34   17   18 1    
    35   17   86 1    
    36   17   87 1    
    37   18   19 1    
    38   18   37 1    
    39   18   88 1    
    40   19   20 am   BACKBONE|DICT|INTERRES
    41   19   89 1    
    42   20   21 2    
    43   20   22 1    
    44   22   23 1    
    45   22   24 1    
    46   22   90 1    
    47   23   91 1    
    48   23   92 1    
    49   23   93 1    
    50   24   25 am   BACKBONE|DICT|INTERRES
    51   24   94 1    
    52   25   26 2    
    53   25   27 1    
    54   27   28 1    
    55   27   29 1    
    56   27   95 1    
    57   28   96 1    
    58   28   97 1    
    59   28   98 1    
    60   29   30 am   BACKBONE|DICT|INTERRES
    61   29   99 1    
    62   30   31 2    
    63   30   32 1    
    64   32   33 1    
    65   32   34 1    
    66   32  100 1    
    67   33  101 1    
    68   33  102 1    
    69   33  103 1    
    70   34   35 am   BACKBONE|DICT|INTERRES
    71   34  104 1    
    72   35   36 2    
    73   37   38 2    
    74   37   39 am   BACKBONE|DICT|INTERRES
    75   39   40 1    
    76   39  105 1    
    77   40   41 1    
    78   40   42 1    
    79   40  106 1    
    80   41  107 1    
    81   41  108 1    
    82   41  109 1    
    83   42   43 2    
    84   42   44 am   BACKBONE|DICT|INTERRES
    85   44   45 1    
    86   44  110 1    
    87   45   46 1    
    88   45   47 1    
    89   45  111 1    
    90   46  112 1    
    91   46  113 1    
    92   46  114 1    
    93   47   48 2    
    94   47   49 am   BACKBONE|DICT|INTERRES
    95   49   50 1    
    96   49  115 1    
    97   50   51 1    
    98   50   52 1    
    99   50  116 1    
   100   51  117 1    
   101   51  118 1    
   102   51  119 1    
   103   52   53 2    
   104   52   54 am   BACKBONE|DICT|INTERRES
   105   54   55 1    
   106   54  120 1    
   107   55   56 1    
   108   55   57 1    
   109   55  121 1    
   110   56  122 1    
   111   56  123 1    
   112   56  124 1    
   113   57   58 2    
   114   57   59 am   BACKBONE|DICT|INTERRES
   115   59   60 1    
   116   59  125 1    
   117   60   61 1    
   118   60   62 1    
   119   60  126 1    
   120   61  127 1    
   121   61  128 1    
   122   61  129 1    
   123   62   63 2    
   124   62   64 am   BACKBONE|DICT|INTERRES
   125   64   65 1    
   126   64  130 1    
   127   65   66 1    
   128   65   69 1    
   129   65  131 1    
   130   66   67 am   BACKBONE|DICT|INTERRES
   131   66   68 2    
   132   67  132 1    
   133   67  133 1    
   134   69   70 1    
   135   69  134 1    
   136   69  135 1    
   137   70   71 1    
   138   71  136 1    
   139   71  137 1    
@<TRIPOS>SUBSTRUCTURE
     1 UNK         1 GROUP             0       ****    0 ROOT    
