@<TRIPOS>MOLECULE
3R137
137   139    1
SMALL
USER_CHARGES


@<TRIPOS>ATOM
      1 CA         24.1562   -5.7896    0.8793 C.3       0 UNK        -0.2020 
      2 C          25.3392   -4.8405    1.0029 C.2       0 UNK         0.4855 
      3 O          25.6533   -4.3990    2.1091 O.2       0 UNK        -0.5197 
      4 N          25.9972   -4.5331   -0.1218 N.am      1 UNK        -0.4892 
      5 CA         27.1105   -3.5817   -0.2142 C.3       1 UNK         0.0835 
      6 C6         28.2029   -4.0890   -1.1967 C.3       12 UNK        -0.0855 
      7 S7         29.8724   -3.5340   -0.7064 S.3       12 UNK        -0.2931 
      8 C8         30.9286   -4.6466   -1.6833 C.3       12 UNK         0.0378 
      9 C9         31.0768   -4.1584   -3.1160 C.ar      12 UNK        -0.0802 
     10 C10        32.1611   -3.3502   -3.4712 C.ar      12 UNK        -0.0944 
     11 C11        32.3269   -2.9220   -4.7912 C.ar      12 UNK        -0.0787 
     12 C12        31.3812   -3.2942   -5.7515 C.ar      12 UNK        -0.0862 
     13 C13        30.2880   -4.1010   -5.4150 C.ar      12 UNK        -0.0733 
     14 C14        30.1508   -4.5387   -4.0921 C.ar      12 UNK        -0.0832 
     15 C15        29.3260   -4.5408   -6.5201 C.3       12 UNK         0.0240 
     16 S16        27.6102   -4.8958   -5.9942 S.3       12 UNK        -0.2522 
     17 C17        27.0020   -3.2748   -5.4232 C.3       12 UNK        -0.0967 
     18 CA         26.6371   -2.3129   -6.5905 C.3       5 UNK         0.0660 
     19 N          25.3644   -1.6157   -6.3779 N.am      5 UNK        -0.4015 
     20 C          24.7477   -0.8612   -7.3021 C.2       4 UNK         0.4946 
     21 O          25.1542   -0.7185   -8.4545 O.2       4 UNK        -0.5353 
     22 CA         23.4788   -0.1073   -6.8728 C.3       4 UNK         0.0277 
     23 CB         22.2286   -0.9514   -7.1668 C.3       4 UNK        -0.1981 
     24 N          23.4760    0.2949   -5.4658 N.am      4 UNK        -0.4209 
     25 C          24.3510    1.1333   -4.8923 C.2       3 UNK         0.4942 
     26 O          25.2767    1.6768   -5.4985 O.2       3 UNK        -0.5208 
     27 CA         24.1679    1.4059   -3.3847 C.3       3 UNK         0.0250 
     28 CB         23.0064    0.6150   -2.7388 C.3       3 UNK        -0.1990 
     29 N          25.3833    1.1990   -2.5878 N.am      3 UNK        -0.4232 
     30 C          26.2229    0.1522   -2.6121 C.2       2 UNK         0.4993 
     31 O          26.2083   -0.7325   -3.4736 O.2       2 UNK        -0.5286 
     32 CA         27.2728    0.0796   -1.4804 C.3       2 UNK         0.0209 
     33 CB         26.9671    0.9945   -0.2715 C.3       2 UNK        -0.1931 
     34 N          27.5002   -1.2980   -1.0262 N.am      2 UNK        -0.4546 
     35 C          26.5901   -2.1652   -0.5567 C.2       1 UNK         0.5154 
     36 O          25.3991   -1.8850   -0.3891 O.2       1 UNK        -0.5181 
     37 C          27.7609   -1.2950   -6.8418 C.2       5 UNK         0.5014 
     38 O          28.4500   -1.3777   -7.8601 O.2       5 UNK        -0.5248 
     39 N          27.8843   -0.3245   -5.9248 N.am      6 UNK        -0.4434 
     40 CA         28.8609    0.7573   -6.0130 C.3       6 UNK         0.0363 
     41 CB         28.8882    1.5733   -4.7139 C.3       6 UNK        -0.1936 
     42 C          28.6479    1.6657   -7.2279 C.2       6 UNK         0.5081 
     43 O          29.6326    2.0344   -7.8666 O.2       6 UNK        -0.5248 
     44 N          27.3836    1.9771   -7.5434 N.am      7 UNK        -0.4718 
     45 CA         26.9964    2.7554   -8.7212 C.3       7 UNK         0.0273 
     46 CB         25.4954    3.0773   -8.6601 C.3       7 UNK        -0.1935 
     47 C          27.3510    2.0584  -10.0459 C.2       7 UNK         0.5018 
     48 O          27.8708    2.7170  -10.9471 O.2       7 UNK        -0.5186 
     49 N          27.0817    0.7475  -10.1386 N.am      8 UNK        -0.4240 
     50 CA         27.3880   -0.0726  -11.3128 C.3       8 UNK         0.0235 
     51 CB         26.6490   -1.4173  -11.2179 C.3       8 UNK        -0.2000 
     52 C          28.8949   -0.3002  -11.5057 C.2       8 UNK         0.4941 
     53 O          29.3852   -0.1724  -12.6284 O.2       8 UNK        -0.5273 
     54 N          29.5993   -0.6416  -10.4184 N.am      9 UNK        -0.4262 
     55 CA         31.0298   -0.9579  -10.4372 C.3       9 UNK         0.0264 
     56 CB         31.3605   -1.8123   -9.2057 C.3       9 UNK        -0.1955 
     57 C          31.9478    0.2754  -10.4727 C.2       9 UNK         0.5031 
     58 O          33.1287    0.1180  -10.7860 O.2       9 UNK        -0.5390 
     59 N          31.4155    1.4528  -10.1102 N.am      10 UNK        -0.4204 
     60 CA         32.1377    2.6986   -9.8195 C.3       10 UNK         0.0237 
     61 CB         32.8557    3.2516  -11.0698 C.3       10 UNK        -0.1985 
     62 C          33.0621    2.5310   -8.5959 C.2       10 UNK         0.4970 
     63 O          34.2289    2.9258   -8.6354 O.2       10 UNK        -0.4914 
     64 N          32.5125    1.9217   -7.5364 N.am      11 UNK        -0.4285 
     65 CA         33.2007    1.6452   -6.2648 C.3       11 UNK         0.1007 
     66 C          33.4007    2.9039   -5.3683 C.2       11 UNK         0.5703 
     67 N          32.6729    3.9937   -5.5874 N.am      11 UNK        -0.7361 
     68 O          34.2404    2.9004   -4.4719 O.2       11 UNK        -0.4986 
     69 C69        32.5031    0.4868   -5.4970 C.3       12 UNK        -0.0947 
     70 S70        33.6288   -0.4716   -4.4311 S.3       12 UNK        -0.2240 
     71 C71        33.5673   -2.1274   -5.1894 C.3       12 UNK         0.0194 
     72 H72        24.0015   -6.1192   -0.1480 H         1 UNK         0.0906 
     73 H73        24.3170   -6.6726    1.4973 H         1 UNK         0.0906 
     74 H74        23.2446   -5.2979    1.2181 H         1 UNK         0.0906 
     75 H75        25.6575   -4.8913   -1.0033 H         1 UNK         0.3140 
     76 H76        27.5645   -3.4972    0.7761 H         1 UNK         0.1085 
     77 H77        28.2173   -5.1804   -1.1988 H         1 UNK         0.0836 
     78 H78        27.9928   -3.7937   -2.2268 H         1 UNK         0.0836 
     79 H79        31.9094   -4.7007   -1.2080 H         1 UNK         0.0731 
     80 H80        30.5299   -5.6620   -1.6628 H         1 UNK         0.0731 
     81 H81        32.8908   -3.0692   -2.7239 H         1 UNK         0.1312 
     82 H82        31.5178   -2.9862   -6.7761 H         1 UNK         0.1406 
     83 H83        29.3305   -5.1874   -3.8190 H         1 UNK         0.1631 
     84 H84        29.7307   -5.4476   -6.9711 H         1 UNK         0.0717 
     85 H85        29.3000   -3.7990   -7.3178 H         1 UNK         0.0717 
     86 H86        27.7179   -2.8419   -4.7205 H         1 UNK         0.0934 
     87 H87        26.1173   -3.4837   -4.8197 H         1 UNK         0.0934 
     88 H88        26.5156   -2.8943   -7.5073 H         1 UNK         0.0739 
     89 H89        25.0015   -1.6172   -5.4347 H         1 UNK         0.3093 
     90 H90        23.4206    0.8031   -7.4717 H         1 UNK         0.0818 
     91 H91        21.3146   -0.3946   -6.9591 H         1 UNK         0.0819 
     92 H92        22.1947   -1.2435   -8.2176 H         1 UNK         0.0819 
     93 H93        22.2082   -1.8667   -6.5739 H         1 UNK         0.0819 
     94 H94        22.7518   -0.1011   -4.8841 H         1 UNK         0.3041 
     95 H95        23.9278    2.4672   -3.3061 H         1 UNK         0.0784 
     96 H96        22.0532    0.8245   -3.2262 H         1 UNK         0.0793 
     97 H97        23.1785   -0.4621   -2.7714 H         1 UNK         0.0793 
     98 H98        22.8857    0.8899   -1.6906 H         1 UNK         0.0793 
     99 H99        25.5383    1.8898   -1.8675 H         1 UNK         0.3024 
    100 H100       28.2146    0.4137   -1.9140 H         1 UNK         0.1171 
    101 H101       27.7153    0.8698    0.5115 H         1 UNK         0.0786 
    102 H102       25.9930    0.7772    0.1692 H         1 UNK         0.0786 
    103 H103       26.9820    2.0485   -0.5513 H         1 UNK         0.0786 
    104 H104       28.4438   -1.6475   -1.1420 H         1 UNK         0.2977 
    105 H105       27.2523   -0.3257   -5.1288 H         1 UNK         0.3127 
    106 H106       29.8314    0.2826   -6.1422 H         1 UNK         0.0770 
    107 H107       27.9053    1.9763   -4.4675 H         1 UNK         0.0814 
    108 H108       29.5750    2.4172   -4.7958 H         1 UNK         0.0814 
    109 H109       29.2326    0.9632   -3.8809 H         1 UNK         0.0814 
    110 H110       26.6386    1.6777   -6.9194 H         1 UNK         0.2983 
    111 H111       27.5479    3.6976   -8.6868 H         1 UNK         0.0947 
    112 H112       25.2004    3.7177   -9.4923 H         1 UNK         0.0806 
    113 H113       25.2374    3.6007   -7.7391 H         1 UNK         0.0806 
    114 H114       24.8884    2.1739   -8.7138 H         1 UNK         0.0806 
    115 H115       26.6114    0.2810   -9.3673 H         1 UNK         0.3000 
    116 H116       27.0175    0.4531  -12.1956 H         1 UNK         0.0850 
    117 H117       26.8642   -2.0457  -12.0831 H         1 UNK         0.0810 
    118 H118       25.5690   -1.2726  -11.1829 H         1 UNK         0.0810 
    119 H119       26.9386   -1.9753  -10.3261 H         1 UNK         0.0810 
    120 H120       29.1137   -0.7696   -9.5317 H         1 UNK         0.3040 
    121 H121       31.2442   -1.5513  -11.3287 H         1 UNK         0.0766 
    122 H122       32.4104   -2.1087   -9.2002 H         1 UNK         0.0812 
    123 H123       31.1692   -1.2618   -8.2841 H         1 UNK         0.0812 
    124 H124       30.7640   -2.7244   -9.1851 H         1 UNK         0.0812 
    125 H125       30.4436    1.4529   -9.8229 H         1 UNK         0.3205 
    126 H126       31.3795    3.4285   -9.5315 H         1 UNK         0.0754 
    127 H127       33.2688    4.2415  -10.8729 H         1 UNK         0.0769 
    128 H128       32.1681    3.3483  -11.9100 H         1 UNK         0.0769 
    129 H129       33.6826    2.6145  -11.3841 H         1 UNK         0.0769 
    130 H130       31.5195    1.7150   -7.5772 H         1 UNK         0.2981 
    131 H131       34.2028    1.3039   -6.5321 H         1 UNK         0.0541 
    132 H132       31.9865    4.0129   -6.3238 H         1 UNK         0.3459 
    133 H133       32.8163    4.8060   -5.0084 H         1 UNK         0.3459 
    134 H134       32.0522   -0.2096   -6.2043 H         1 UNK         0.0612 
    135 H135       31.6875    0.8615   -4.8783 H         1 UNK         0.0612 
    136 H136       33.6462   -2.0337   -6.2738 H         1 UNK         0.0624 
    137 H137       34.4506   -2.6825   -4.8707 H         1 UNK         0.0624 
@<TRIPOS>BOND
     1    1    2 1    
     2    1   72 1    
     3    1   73 1    
     4    1   74 1    
     5    2    3 2    
     6    2    4 am   BACKBONE|DICT|INTERRES
     7    4    5 1    
     8    4   75 1    
     9    5    6 1    
    10    5   35 1    
    11    5   76 1    
    12    6    7 1    
    13    6   77 1    
    14    6   78 1    
    15    7    8 1    
    16    8    9 1    
    17    8   79 1    
    18    8   80 1    
    19    9   10 ar   
    20    9   14 ar   
    21   10   11 ar   
    22   10   81 1    
    23   11   12 ar   
    24   11   71 1    
    25   12   13 ar   
    26   12   82 1    
    27   13   14 ar   
    28   13   15 1    
    29   14   83 1    
    30   15   16 1    
    31   15   84 1    
    32   15   85 1    
    33   16   17 1    
    34   17   18 1    
    35   17   86 1    
    36   17   87 1    
    37   18   19 1    
    38   18   37 1    
    39   18   88 1    
    40   19   20 am   BACKBONE|DICT|INTERRES
    41   19   89 1    
    42   20   21 2    
    43   20   22 1    
    44   22   23 1    
    45   22   24 1    
    46   22   90 1    
    47   23   91 1    
    48   23   92 1    
    49   23   93 1    
    50   24   25 am   BACKBONE|DICT|INTERRES
    51   24   94 1    
    52   25   26 2    
    53   25   27 1    
    54   27   28 1    
    55   27   29 1    
    56   27   95 1    
    57   28   96 1    
    58   28   97 1    
    59   28   98 1    
    60   29   30 am   BACKBONE|DICT|INTERRES
    61   29   99 1    
    62   30   31 2    
    63   30   32 1    
    64   32   33 1    
    65   32   34 1    
    66   32  100 1    
    67   33  101 1    
    68   33  102 1    
    69   33  103 1    
    70   34   35 am   BACKBONE|DICT|INTERRES
    71   34  104 1    
    72   35   36 2    
    73   37   38 2    
    74   37   39 am   BACKBONE|DICT|INTERRES
    75   39   40 1    
    76   39  105 1    
    77   40   41 1    
    78   40   42 1    
    79   40  106 1    
    80   41  107 1    
    81   41  108 1    
    82   41  109 1    
    83   42   43 2    
    84   42   44 am   BACKBONE|DICT|INTERRES
    85   44   45 1    
    86   44  110 1    
    87   45   46 1    
    88   45   47 1    
    89   45  111 1    
    90   46  112 1    
    91   46  113 1    
    92   46  114 1    
    93   47   48 2    
    94   47   49 am   BACKBONE|DICT|INTERRES
    95   49   50 1    
    96   49  115 1    
    97   50   51 1    
    98   50   52 1    
    99   50  116 1    
   100   51  117 1    
   101   51  118 1    
   102   51  119 1    
   103   52   53 2    
   104   52   54 am   BACKBONE|DICT|INTERRES
   105   54   55 1    
   106   54  120 1    
   107   55   56 1    
   108   55   57 1    
   109   55  121 1    
   110   56  122 1    
   111   56  123 1    
   112   56  124 1    
   113   57   58 2    
   114   57   59 am   BACKBONE|DICT|INTERRES
   115   59   60 1    
   116   59  125 1    
   117   60   61 1    
   118   60   62 1    
   119   60  126 1    
   120   61  127 1    
   121   61  128 1    
   122   61  129 1    
   123   62   63 2    
   124   62   64 am   BACKBONE|DICT|INTERRES
   125   64   65 1    
   126   64  130 1    
   127   65   66 1    
   128   65   69 1    
   129   65  131 1    
   130   66   67 am   BACKBONE|DICT|INTERRES
   131   66   68 2    
   132   67  132 1    
   133   67  133 1    
   134   69   70 1    
   135   69  134 1    
   136   69  135 1    
   137   70   71 1    
   138   71  136 1    
   139   71  137 1    
@<TRIPOS>SUBSTRUCTURE
     1 UNK         1 GROUP             0       ****    0 ROOT    
