@<TRIPOS>MOLECULE
3R137
137   139    1
SMALL
USER_CHARGES


@<TRIPOS>ATOM
      1 CA         27.2757   -1.0634    3.5638 C.3       0 UNK        -0.2020 
      2 C          27.6790   -0.3405    2.2876 C.2       0 UNK         0.4855 
      3 O          27.7631    0.8877    2.2795 O.2       0 UNK        -0.5197 
      4 N          27.9284   -1.0920    1.2075 N.am      1 UNK        -0.4892 
      5 CA         28.3056   -0.5687   -0.1129 C.3       1 UNK         0.0835 
      6 C6         28.9878   -1.6560   -0.9784 C.3       12 UNK        -0.0855 
      7 S7         27.9616   -3.1455   -1.2503 S.3       12 UNK        -0.2931 
      8 C8         29.2325   -4.3922   -1.6343 C.3       12 UNK         0.0378 
      9 C9         29.8124   -4.1918   -3.0268 C.ar      12 UNK        -0.0802 
     10 C10        30.9324   -3.3761   -3.2149 C.ar      12 UNK        -0.0944 
     11 C11        31.4562   -3.1729   -4.4945 C.ar      12 UNK        -0.0787 
     12 C12        30.8574   -3.8037   -5.5912 C.ar      12 UNK        -0.0862 
     13 C13        29.7469   -4.6380   -5.4155 C.ar      12 UNK        -0.0733 
     14 C14        29.2302   -4.8263   -4.1289 C.ar      12 UNK        -0.0832 
     15 C15        29.1419   -5.3775   -6.6047 C.3       12 UNK         0.0240 
     16 S16        27.3639   -5.0241   -6.8340 S.3       12 UNK        -0.2522 
     17 C17        27.2843   -4.4247   -8.5641 C.3       12 UNK        -0.0967 
     18 CA         26.8360   -2.9483   -8.7083 C.3       5 UNK         0.0660 
     19 N          25.5153   -2.7062   -8.1221 N.am      5 UNK        -0.4015 
     20 C          24.8033   -1.5805   -8.2778 C.2       4 UNK         0.4946 
     21 O          25.1516   -0.6396   -8.9905 O.2       4 UNK        -0.5353 
     22 CA         23.5069   -1.4648   -7.4585 C.3       4 UNK         0.0277 
     23 CB         22.3340   -2.1215   -8.2036 C.3       4 UNK        -0.1981 
     24 N          23.6216   -2.0350   -6.1109 N.am      4 UNK        -0.4209 
     25 C          24.4695   -1.5898   -5.1733 C.2       3 UNK         0.4942 
     26 O          25.2570   -0.6586   -5.3528 O.2       3 UNK        -0.5208 
     27 CA         24.4800   -2.3594   -3.8415 C.3       3 UNK         0.0250 
     28 CB         25.4653   -3.5373   -3.9191 C.3       3 UNK        -0.1990 
     29 N          24.8406   -1.5126   -2.7015 N.am      3 UNK        -0.4232 
     30 C          24.1185   -0.4741   -2.2552 C.2       2 UNK         0.4993 
     31 O          23.0389   -0.1385   -2.7461 O.2       2 UNK        -0.5286 
     32 CA         24.6528    0.3061   -1.0380 C.3       2 UNK         0.0209 
     33 CB         23.6039    0.3536    0.0880 C.3       2 UNK        -0.1931 
     34 N          25.8937   -0.2457   -0.4872 N.am      2 UNK        -0.4546 
     35 C          27.1321    0.1061   -0.8595 C.2       1 UNK         0.5154 
     36 O          27.3686    0.9277   -1.7454 O.2       1 UNK        -0.5181 
     37 C          27.8965   -1.9674   -8.1718 C.2       5 UNK         0.5014 
     38 O          28.6962   -1.4539   -8.9545 O.2       5 UNK        -0.5248 
     39 N          27.8548   -1.6993   -6.8588 N.am      6 UNK        -0.4434 
     40 CA         28.7365   -0.7602   -6.1734 C.3       6 UNK         0.0363 
     41 CB         28.5630   -0.8847   -4.6523 C.3       6 UNK        -0.1936 
     42 C          28.4938    0.6804   -6.6302 C.2       6 UNK         0.5081 
     43 O          29.4514    1.3755   -6.9651 O.2       6 UNK        -0.5248 
     44 N          27.2151    1.0785   -6.6818 N.am      7 UNK        -0.4718 
     45 CA         26.7648    2.3834   -7.1679 C.3       7 UNK         0.0273 
     46 CB         25.2492    2.5121   -6.9480 C.3       7 UNK        -0.1935 
     47 C          27.1277    2.6397   -8.6411 C.2       7 UNK         0.5018 
     48 O          27.5020    3.7631   -8.9799 O.2       7 UNK        -0.5186 
     49 N          27.0215    1.6004   -9.4813 N.am      8 UNK        -0.4240 
     50 CA         27.3997    1.6395  -10.8929 C.3       8 UNK         0.0235 
     51 CB         26.8116    0.4209  -11.6236 C.3       8 UNK        -0.2000 
     52 C          28.9208    1.7182  -11.1017 C.2       8 UNK         0.4941 
     53 O          29.3754    2.5655  -11.8717 O.2       8 UNK        -0.5273 
     54 N          29.6750    0.8221  -10.4487 N.am      9 UNK        -0.4262 
     55 CA         31.1205    0.6864  -10.6395 C.3       9 UNK         0.0264 
     56 CB         31.5737   -0.7096  -10.1826 C.3       9 UNK        -0.1955 
     57 C          31.9386    1.7770   -9.9318 C.2       9 UNK         0.5031 
     58 O          32.8515    2.3280  -10.5481 O.2       9 UNK        -0.5390 
     59 N          31.6163    2.0337   -8.6547 N.am      10 UNK        -0.4204 
     60 CA         32.3051    2.9105   -7.6978 C.3       10 UNK         0.0237 
     61 CB         31.8119    4.3577   -7.9027 C.3       10 UNK        -0.1985 
     62 C          33.8524    2.8003   -7.7030 C.2       10 UNK         0.4970 
     63 O          34.5189    3.7912   -8.0033 O.2       10 UNK        -0.4914 
     64 N          34.4583    1.6446   -7.3951 N.am      11 UNK        -0.4285 
     65 CA         33.8799    0.3548   -7.0012 C.3       11 UNK         0.1007 
     66 C          34.7387   -0.7904   -7.5955 C.2       11 UNK         0.5703 
     67 N          34.1222   -1.8863   -8.0157 N.am      11 UNK        -0.7361 
     68 O          35.9638   -0.6998   -7.6588 O.2       11 UNK        -0.4986 
     69 C69        33.7350    0.2353   -5.4570 C.3       12 UNK        -0.0947 
     70 S70        32.1674   -0.5544   -4.9788 S.3       12 UNK        -0.2240 
     71 C71        32.6711   -2.2765   -4.6881 C.3       12 UNK         0.0194 
     72 H72        27.2464   -2.1445    3.4291 H         1 UNK         0.0906 
     73 H73        27.9845   -0.8406    4.3609 H         1 UNK         0.0906 
     74 H74        26.2876   -0.7348    3.8848 H         1 UNK         0.0906 
     75 H75        27.8496   -2.0987    1.2635 H         1 UNK         0.3140 
     76 H76        29.0437    0.2205    0.0495 H         1 UNK         0.1085 
     77 H77        29.9164   -1.9585   -0.4922 H         1 UNK         0.0836 
     78 H78        29.2865   -1.2470   -1.9438 H         1 UNK         0.0836 
     79 H79        28.7827   -5.3835   -1.5609 H         1 UNK         0.0731 
     80 H80        30.0223   -4.3635   -0.8820 H         1 UNK         0.0731 
     81 H81        31.3903   -2.8871   -2.3663 H         1 UNK         0.1312 
     82 H82        31.2650   -3.6517   -6.5810 H         1 UNK         0.1406 
     83 H83        28.3703   -5.4671   -3.9872 H         1 UNK         0.1631 
     84 H84        29.2614   -6.4498   -6.4449 H         1 UNK         0.0717 
     85 H85        29.6998   -5.1481   -7.5127 H         1 UNK         0.0717 
     86 H86        28.2374   -4.5786   -9.0723 H         1 UNK         0.0934 
     87 H87        26.5785   -5.0644   -9.0964 H         1 UNK         0.0934 
     88 H88        26.7428   -2.7446   -9.7775 H         1 UNK         0.0739 
     89 H89        25.1568   -3.4291   -7.5160 H         1 UNK         0.3093 
     90 H90        23.2865   -0.4010   -7.3471 H         1 UNK         0.0818 
     91 H91        21.3914   -1.9614   -7.6798 H         1 UNK         0.0819 
     92 H92        22.2221   -1.6977   -9.2028 H         1 UNK         0.0819 
     93 H93        22.4762   -3.1966   -8.3201 H         1 UNK         0.0819 
     94 H94        23.0086   -2.8069   -5.8895 H         1 UNK         0.3041 
     95 H95        23.4774   -2.7512   -3.6579 H         1 UNK         0.0784 
     96 H96        25.2005   -4.2209   -4.7265 H         1 UNK         0.0793 
     97 H97        26.4871   -3.2000   -4.0982 H         1 UNK         0.0793 
     98 H98        25.4640   -4.1180   -2.9964 H         1 UNK         0.0793 
     99 H99        25.7228   -1.7082   -2.2510 H         1 UNK         0.3024 
    100 H100       24.8339    1.3291   -1.3765 H         1 UNK         0.1171 
    101 H101       23.9604    0.9371    0.9372 H         1 UNK         0.0786 
    102 H102       22.6788    0.8196   -0.2544 H         1 UNK         0.0786 
    103 H103       23.3523   -0.6449    0.4477 H         1 UNK         0.0786 
    104 H104       25.8015   -0.9378    0.2427 H         1 UNK         0.2977 
    105 H105       27.1423   -2.1419   -6.2987 H         1 UNK         0.3127 
    106 H106       29.7603   -1.0318   -6.4328 H         1 UNK         0.0770 
    107 H107       29.2903   -0.2608   -4.1327 H         1 UNK         0.0814 
    108 H108       27.5773   -0.5676   -4.3148 H         1 UNK         0.0814 
    109 H109       28.7136   -1.9092   -4.3190 H         1 UNK         0.0814 
    110 H110       26.4984    0.4375   -6.3481 H         1 UNK         0.2983 
    111 H111       27.2662    3.1465   -6.5688 H         1 UNK         0.0947 
    112 H112       24.6957    1.7614   -7.5133 H         1 UNK         0.0806 
    113 H113       24.8900    3.4920   -7.2653 H         1 UNK         0.0806 
    114 H114       24.9897    2.3947   -5.8956 H         1 UNK         0.0806 
    115 H115       26.6316    0.7294   -9.1334 H         1 UNK         0.3000 
    116 H116       26.9592    2.5368  -11.3331 H         1 UNK         0.0850 
    117 H117       27.0803    0.4306  -12.6807 H         1 UNK         0.0810 
    118 H118       25.7230    0.4137  -11.5658 H         1 UNK         0.0810 
    119 H119       27.1725   -0.5180  -11.2020 H         1 UNK         0.0810 
    120 H120       29.2259    0.1323   -9.8490 H         1 UNK         0.3040 
    121 H121       31.3288    0.7630  -11.7092 H         1 UNK         0.0766 
    122 H122       31.3657   -0.8762   -9.1253 H         1 UNK         0.0812 
    123 H123       32.6456   -0.8417  -10.3355 H         1 UNK         0.0812 
    124 H124       31.0673   -1.4931  -10.7466 H         1 UNK         0.0812 
    125 H125       30.8055    1.5615   -8.2577 H         1 UNK         0.3205 
    126 H126       31.9815    2.5944   -6.7049 H         1 UNK         0.0754 
    127 H127       32.2491    5.0318   -7.1651 H         1 UNK         0.0769 
    128 H128       30.7283    4.4220   -7.7980 H         1 UNK         0.0769 
    129 H129       32.0744    4.7351   -8.8918 H         1 UNK         0.0769 
    130 H130       35.4654    1.6072   -7.4739 H         1 UNK         0.2981 
    131 H131       32.8976    0.2597   -7.4555 H         1 UNK         0.0541 
    132 H132       33.1226   -1.9827   -7.9526 H         1 UNK         0.3459 
    133 H133       34.6752   -2.6377   -8.3971 H         1 UNK         0.3459 
    134 H134       33.7230    1.2253   -4.9983 H         1 UNK         0.0612 
    135 H135       34.5770   -0.2851   -4.9959 H         1 UNK         0.0612 
    136 H136       33.3170   -2.3182   -3.8099 H         1 UNK         0.0624 
    137 H137       33.2673   -2.6381   -5.5253 H         1 UNK         0.0624 
@<TRIPOS>BOND
     1    1    2 1    
     2    1   72 1    
     3    1   73 1    
     4    1   74 1    
     5    2    3 2    
     6    2    4 am   BACKBONE|DICT|INTERRES
     7    4    5 1    
     8    4   75 1    
     9    5    6 1    
    10    5   35 1    
    11    5   76 1    
    12    6    7 1    
    13    6   77 1    
    14    6   78 1    
    15    7    8 1    
    16    8    9 1    
    17    8   79 1    
    18    8   80 1    
    19    9   10 ar   
    20    9   14 ar   
    21   10   11 ar   
    22   10   81 1    
    23   11   12 ar   
    24   11   71 1    
    25   12   13 ar   
    26   12   82 1    
    27   13   14 ar   
    28   13   15 1    
    29   14   83 1    
    30   15   16 1    
    31   15   84 1    
    32   15   85 1    
    33   16   17 1    
    34   17   18 1    
    35   17   86 1    
    36   17   87 1    
    37   18   19 1    
    38   18   37 1    
    39   18   88 1    
    40   19   20 am   BACKBONE|DICT|INTERRES
    41   19   89 1    
    42   20   21 2    
    43   20   22 1    
    44   22   23 1    
    45   22   24 1    
    46   22   90 1    
    47   23   91 1    
    48   23   92 1    
    49   23   93 1    
    50   24   25 am   BACKBONE|DICT|INTERRES
    51   24   94 1    
    52   25   26 2    
    53   25   27 1    
    54   27   28 1    
    55   27   29 1    
    56   27   95 1    
    57   28   96 1    
    58   28   97 1    
    59   28   98 1    
    60   29   30 am   BACKBONE|DICT|INTERRES
    61   29   99 1    
    62   30   31 2    
    63   30   32 1    
    64   32   33 1    
    65   32   34 1    
    66   32  100 1    
    67   33  101 1    
    68   33  102 1    
    69   33  103 1    
    70   34   35 am   BACKBONE|DICT|INTERRES
    71   34  104 1    
    72   35   36 2    
    73   37   38 2    
    74   37   39 am   BACKBONE|DICT|INTERRES
    75   39   40 1    
    76   39  105 1    
    77   40   41 1    
    78   40   42 1    
    79   40  106 1    
    80   41  107 1    
    81   41  108 1    
    82   41  109 1    
    83   42   43 2    
    84   42   44 am   BACKBONE|DICT|INTERRES
    85   44   45 1    
    86   44  110 1    
    87   45   46 1    
    88   45   47 1    
    89   45  111 1    
    90   46  112 1    
    91   46  113 1    
    92   46  114 1    
    93   47   48 2    
    94   47   49 am   BACKBONE|DICT|INTERRES
    95   49   50 1    
    96   49  115 1    
    97   50   51 1    
    98   50   52 1    
    99   50  116 1    
   100   51  117 1    
   101   51  118 1    
   102   51  119 1    
   103   52   53 2    
   104   52   54 am   BACKBONE|DICT|INTERRES
   105   54   55 1    
   106   54  120 1    
   107   55   56 1    
   108   55   57 1    
   109   55  121 1    
   110   56  122 1    
   111   56  123 1    
   112   56  124 1    
   113   57   58 2    
   114   57   59 am   BACKBONE|DICT|INTERRES
   115   59   60 1    
   116   59  125 1    
   117   60   61 1    
   118   60   62 1    
   119   60  126 1    
   120   61  127 1    
   121   61  128 1    
   122   61  129 1    
   123   62   63 2    
   124   62   64 am   BACKBONE|DICT|INTERRES
   125   64   65 1    
   126   64  130 1    
   127   65   66 1    
   128   65   69 1    
   129   65  131 1    
   130   66   67 am   BACKBONE|DICT|INTERRES
   131   66   68 2    
   132   67  132 1    
   133   67  133 1    
   134   69   70 1    
   135   69  134 1    
   136   69  135 1    
   137   70   71 1    
   138   71  136 1    
   139   71  137 1    
@<TRIPOS>SUBSTRUCTURE
     1 UNK         1 GROUP             0       ****    0 ROOT    
