@<TRIPOS>MOLECULE
3R137
137   139    1
SMALL
USER_CHARGES


@<TRIPOS>ATOM
      1 CA         29.6818   -3.8923   -5.6669 C.3       0 UNK        -0.2020 
      2 C          29.6039   -4.3513   -4.2187 C.2       0 UNK         0.4855 
      3 O          29.9778   -5.4847   -3.9133 O.2       0 UNK        -0.5197 
      4 N          29.1219   -3.4788   -3.3262 N.am      1 UNK        -0.4892 
      5 CA         28.8448   -3.7803   -1.9154 C.3       1 UNK         0.0835 
      6 C6         28.7811   -2.4844   -1.0672 C.3       12 UNK        -0.0855 
      7 S7         30.3814   -1.6092   -1.0545 S.3       12 UNK        -0.2931 
      8 C8         29.8651    0.1049   -0.7209 C.3       12 UNK         0.0378 
      9 C9         29.1140    0.7259   -1.8910 C.ar      12 UNK        -0.0802 
     10 C10        29.7684    0.9482   -3.1064 C.ar      12 UNK        -0.0944 
     11 C11        29.0917    1.5379   -4.1768 C.ar      12 UNK        -0.0787 
     12 C12        27.7587    1.9263   -4.0223 C.ar      12 UNK        -0.0862 
     13 C13        27.0906    1.7021   -2.8155 C.ar      12 UNK        -0.0733 
     14 C14        27.7726    1.0992   -1.7535 C.ar      12 UNK        -0.0832 
     15 C15        25.6388    2.1267   -2.6501 C.3       12 UNK         0.0240 
     16 S16        24.4855    0.8043   -3.1354 S.3       12 UNK        -0.2522 
     17 C17        24.5373    0.8986   -4.9599 C.3       12 UNK        -0.0967 
     18 CA         25.2792   -0.3031   -5.5955 C.3       5 UNK         0.0660 
     19 N          24.6376   -1.5683   -5.2369 N.am      5 UNK        -0.4015 
     20 C          25.1213   -2.7917   -5.4770 C.2       4 UNK         0.4946 
     21 O          26.1989   -3.0115   -6.0337 O.2       4 UNK        -0.5353 
     22 CA         24.2622   -3.9525   -4.9488 C.3       4 UNK         0.0277 
     23 CB         24.7806   -5.3328   -5.3952 C.3       4 UNK        -0.1981 
     24 N          24.2281   -3.8947   -3.4863 N.am      4 UNK        -0.4209 
     25 C          23.3293   -3.2115   -2.7621 C.2       3 UNK         0.4942 
     26 O          22.3847   -2.6099   -3.2765 O.2       3 UNK        -0.5208 
     27 CA         23.5256   -3.1149   -1.2317 C.3       3 UNK         0.0250 
     28 CB         22.2078   -3.3463   -0.4616 C.3       3 UNK        -0.1990 
     29 N          24.6158   -3.9397   -0.6905 N.am      3 UNK        -0.4232 
     30 C          24.6979   -5.2789   -0.6431 C.2       2 UNK         0.4993 
     31 O          23.7853   -6.0352   -0.9791 O.2       2 UNK        -0.5286 
     32 CA         26.0541   -5.8648   -0.1815 C.3       2 UNK         0.0209 
     33 CB         26.2558   -7.3179   -0.6630 C.3       2 UNK        -0.1931 
     34 N          27.2294   -5.0501   -0.5491 N.am      2 UNK        -0.4546 
     35 C          27.5450   -4.6054   -1.7773 C.2       1 UNK         0.5154 
     36 O          26.8261   -4.7935   -2.7600 O.2       1 UNK        -0.5181 
     37 C          25.3680   -0.1351   -7.1260 C.2       5 UNK         0.5014 
     38 O          24.4410   -0.5248   -7.8419 O.2       5 UNK        -0.5248 
     39 N          26.4611    0.4766   -7.5896 N.am      6 UNK        -0.4434 
     40 CA         26.7348    0.7936   -8.9886 C.3       6 UNK         0.0363 
     41 CB         27.5908   -0.3275   -9.6126 C.3       6 UNK        -0.1936 
     42 C          27.4184    2.1676   -9.0669 C.2       6 UNK         0.5081 
     43 O          27.5556    2.8519   -8.0485 O.2       6 UNK        -0.5248 
     44 N          27.8161    2.5618  -10.2819 N.am      7 UNK        -0.4718 
     45 CA         28.4564    3.8393  -10.6010 C.3       7 UNK         0.0273 
     46 CB         28.3887    4.0533  -12.1249 C.3       7 UNK        -0.1935 
     47 C          29.8993    3.9434  -10.0661 C.2       7 UNK         0.5018 
     48 O          30.8494    3.8246  -10.8438 O.2       7 UNK        -0.5186 
     49 N          30.0276    4.1697   -8.7506 N.am      8 UNK        -0.4240 
     50 CA         31.2515    4.4787   -7.9987 C.3       8 UNK         0.0235 
     51 CB         31.6943    5.9314   -8.2831 C.3       8 UNK        -0.2000 
     52 C          32.3692    3.4451   -8.2255 C.2       8 UNK         0.4941 
     53 O          32.3340    2.3777   -7.6153 O.2       8 UNK        -0.5273 
     54 N          33.3146    3.7543   -9.1256 N.am      9 UNK        -0.4262 
     55 CA         34.4115    2.8791   -9.5531 C.3       9 UNK         0.0264 
     56 CB         35.2879    3.6260  -10.5711 C.3       9 UNK        -0.1955 
     57 C          33.9530    1.5254  -10.1286 C.2       9 UNK         0.5031 
     58 O          34.7071    0.5546  -10.0428 O.2       9 UNK        -0.5390 
     59 N          32.7171    1.4607  -10.6495 N.am      10 UNK        -0.4204 
     60 CA         32.0532    0.2275  -11.0841 C.3       10 UNK         0.0237 
     61 CB         30.7032    0.5773  -11.7283 C.3       10 UNK        -0.1985 
     62 C          31.8565   -0.8130   -9.9622 C.2       10 UNK         0.4970 
     63 O          31.7208   -1.9966  -10.2745 O.2       10 UNK        -0.4914 
     64 N          31.8611   -0.3764   -8.6940 N.am      11 UNK        -0.4285 
     65 CA         31.8430   -1.2552   -7.5138 C.3       11 UNK         0.1007 
     66 C          33.2043   -1.9558   -7.2262 C.2       11 UNK         0.5703 
     67 N          34.2988   -1.6093   -7.8967 N.am      11 UNK        -0.7361 
     68 O          33.2669   -2.8443   -6.3803 O.2       11 UNK        -0.4986 
     69 C69        31.3166   -0.5266   -6.2480 C.3       12 UNK        -0.0947 
     70 S70        29.6848    0.2409   -6.5207 S.3       12 UNK        -0.2240 
     71 C71        29.7920    1.7456   -5.5067 C.3       12 UNK         0.0194 
     72 H72        29.2992   -2.8795   -5.7948 H         1 UNK         0.0906 
     73 H73        30.7138   -3.9184   -6.0142 H         1 UNK         0.0906 
     74 H74        29.0897   -4.5531   -6.2996 H         1 UNK         0.0906 
     75 H75        28.8197   -2.5682   -3.6400 H         1 UNK         0.3140 
     76 H76        29.6560   -4.4043   -1.5330 H         1 UNK         0.1085 
     77 H77        28.5247   -2.6977   -0.0281 H         1 UNK         0.0836 
     78 H78        27.9997   -1.8232   -1.4462 H         1 UNK         0.0836 
     79 H79        30.7529    0.7043   -0.5146 H         1 UNK         0.0731 
     80 H80        29.2639    0.1272    0.1895 H         1 UNK         0.0731 
     81 H81        30.8019    0.6509   -3.2222 H         1 UNK         0.1312 
     82 H82        27.2415    2.3975   -4.8465 H         1 UNK         0.1406 
     83 H83        27.2588    0.9295   -0.8168 H         1 UNK         0.1631 
     84 H84        25.4343    3.0311   -3.2252 H         1 UNK         0.0717 
     85 H85        25.4486    2.3867   -1.6077 H         1 UNK         0.0717 
     86 H86        23.5077    0.9419   -5.3212 H         1 UNK         0.0934 
     87 H87        24.9922    1.8427   -5.2636 H         1 UNK         0.0934 
     88 H88        26.2963   -0.3364   -5.1982 H         1 UNK         0.0739 
     89 H89        23.7528   -1.4955   -4.7518 H         1 UNK         0.3093 
     90 H90        23.2539   -3.8333   -5.3515 H         1 UNK         0.0818 
     91 H91        25.8041   -5.5114   -5.0644 H         1 UNK         0.0819 
     92 H92        24.1575   -6.1360   -5.0020 H         1 UNK         0.0819 
     93 H93        24.7729   -5.4162   -6.4825 H         1 UNK         0.0819 
     94 H94        25.0357   -4.3041   -3.0210 H         1 UNK         0.3041 
     95 H95        23.8269   -2.0823   -1.0482 H         1 UNK         0.0784 
     96 H96        21.4523   -2.6148   -0.7514 H         1 UNK         0.0793 
     97 H97        21.7898   -4.3340   -0.6571 H         1 UNK         0.0793 
     98 H98        22.3535   -3.2490    0.6141 H         1 UNK         0.0793 
     99 H99        25.4313   -3.4243   -0.3906 H         1 UNK         0.3024 
    100 H100       26.0129   -5.8812    0.9091 H         1 UNK         0.1171 
    101 H101       27.1991   -7.7284   -0.3031 H         1 UNK         0.0786 
    102 H102       25.4617   -7.9696   -0.2961 H         1 UNK         0.0786 
    103 H103       26.2552   -7.3841   -1.7518 H         1 UNK         0.0786 
    104 H104       27.8617   -4.8396    0.2117 H         1 UNK         0.2977 
    105 H105       27.1568    0.8287   -6.9438 H         1 UNK         0.3127 
    106 H106       25.7937    0.8727   -9.5369 H         1 UNK         0.0770 
    107 H107       28.5948   -0.3574   -9.1888 H         1 UNK         0.0814 
    108 H108       27.6945   -0.1985  -10.6900 H         1 UNK         0.0814 
    109 H109       27.1365   -1.3057   -9.4539 H         1 UNK         0.0814 
    110 H110       27.6661    1.9369  -11.0605 H         1 UNK         0.2983 
    111 H111       27.8786    4.6387  -10.1313 H         1 UNK         0.0947 
    112 H112       28.8489    5.0016  -12.4063 H         1 UNK         0.0806 
    113 H113       27.3576    4.0794  -12.4776 H         1 UNK         0.0806 
    114 H114       28.9106    3.2650  -12.6691 H         1 UNK         0.0806 
    115 H115       29.1772    4.0968   -8.2006 H         1 UNK         0.3000 
    116 H116       30.9916    4.4157   -6.9409 H         1 UNK         0.0850 
    117 H117       32.6119    6.1771   -7.7464 H         1 UNK         0.0810 
    118 H118       30.9342    6.6397   -7.9529 H         1 UNK         0.0810 
    119 H119       31.8690    6.1140   -9.3439 H         1 UNK         0.0810 
    120 H120       33.2284    4.6368   -9.6089 H         1 UNK         0.3040 
    121 H121       35.0166    2.6638   -8.6701 H         1 UNK         0.0766 
    122 H122       36.1288    3.0081  -10.8897 H         1 UNK         0.0812 
    123 H123       35.7034    4.5391  -10.1444 H         1 UNK         0.0812 
    124 H124       34.7252    3.8968  -11.4655 H         1 UNK         0.0812 
    125 H125       32.1646    2.3138  -10.6860 H         1 UNK         0.3205 
    126 H126       32.6869   -0.2327  -11.8448 H         1 UNK         0.0754 
    127 H127       30.0260    1.0278  -11.0044 H         1 UNK         0.0769 
    128 H128       30.2139   -0.3143  -12.1229 H         1 UNK         0.0769 
    129 H129       30.8243    1.2759  -12.5565 H         1 UNK         0.0769 
    130 H130       31.9822    0.6121   -8.4964 H         1 UNK         0.2981 
    131 H131       31.1393   -2.0616   -7.7277 H         1 UNK         0.0541 
    132 H132       34.2761   -0.8835   -8.6035 H         1 UNK         0.3459 
    133 H133       35.1652   -2.0819   -7.6947 H         1 UNK         0.3459 
    134 H134       32.0335    0.2337   -5.9355 H         1 UNK         0.0612 
    135 H135       31.2227   -1.2196   -5.4102 H         1 UNK         0.0612 
    136 H136       29.3274    2.5677   -6.0513 H         1 UNK         0.0624 
    137 H137       30.8290    2.0422   -5.3479 H         1 UNK         0.0624 
@<TRIPOS>BOND
     1    1    2 1    
     2    1   72 1    
     3    1   73 1    
     4    1   74 1    
     5    2    3 2    
     6    2    4 am   BACKBONE|DICT|INTERRES
     7    4    5 1    
     8    4   75 1    
     9    5    6 1    
    10    5   35 1    
    11    5   76 1    
    12    6    7 1    
    13    6   77 1    
    14    6   78 1    
    15    7    8 1    
    16    8    9 1    
    17    8   79 1    
    18    8   80 1    
    19    9   10 ar   
    20    9   14 ar   
    21   10   11 ar   
    22   10   81 1    
    23   11   12 ar   
    24   11   71 1    
    25   12   13 ar   
    26   12   82 1    
    27   13   14 ar   
    28   13   15 1    
    29   14   83 1    
    30   15   16 1    
    31   15   84 1    
    32   15   85 1    
    33   16   17 1    
    34   17   18 1    
    35   17   86 1    
    36   17   87 1    
    37   18   19 1    
    38   18   37 1    
    39   18   88 1    
    40   19   20 am   BACKBONE|DICT|INTERRES
    41   19   89 1    
    42   20   21 2    
    43   20   22 1    
    44   22   23 1    
    45   22   24 1    
    46   22   90 1    
    47   23   91 1    
    48   23   92 1    
    49   23   93 1    
    50   24   25 am   BACKBONE|DICT|INTERRES
    51   24   94 1    
    52   25   26 2    
    53   25   27 1    
    54   27   28 1    
    55   27   29 1    
    56   27   95 1    
    57   28   96 1    
    58   28   97 1    
    59   28   98 1    
    60   29   30 am   BACKBONE|DICT|INTERRES
    61   29   99 1    
    62   30   31 2    
    63   30   32 1    
    64   32   33 1    
    65   32   34 1    
    66   32  100 1    
    67   33  101 1    
    68   33  102 1    
    69   33  103 1    
    70   34   35 am   BACKBONE|DICT|INTERRES
    71   34  104 1    
    72   35   36 2    
    73   37   38 2    
    74   37   39 am   BACKBONE|DICT|INTERRES
    75   39   40 1    
    76   39  105 1    
    77   40   41 1    
    78   40   42 1    
    79   40  106 1    
    80   41  107 1    
    81   41  108 1    
    82   41  109 1    
    83   42   43 2    
    84   42   44 am   BACKBONE|DICT|INTERRES
    85   44   45 1    
    86   44  110 1    
    87   45   46 1    
    88   45   47 1    
    89   45  111 1    
    90   46  112 1    
    91   46  113 1    
    92   46  114 1    
    93   47   48 2    
    94   47   49 am   BACKBONE|DICT|INTERRES
    95   49   50 1    
    96   49  115 1    
    97   50   51 1    
    98   50   52 1    
    99   50  116 1    
   100   51  117 1    
   101   51  118 1    
   102   51  119 1    
   103   52   53 2    
   104   52   54 am   BACKBONE|DICT|INTERRES
   105   54   55 1    
   106   54  120 1    
   107   55   56 1    
   108   55   57 1    
   109   55  121 1    
   110   56  122 1    
   111   56  123 1    
   112   56  124 1    
   113   57   58 2    
   114   57   59 am   BACKBONE|DICT|INTERRES
   115   59   60 1    
   116   59  125 1    
   117   60   61 1    
   118   60   62 1    
   119   60  126 1    
   120   61  127 1    
   121   61  128 1    
   122   61  129 1    
   123   62   63 2    
   124   62   64 am   BACKBONE|DICT|INTERRES
   125   64   65 1    
   126   64  130 1    
   127   65   66 1    
   128   65   69 1    
   129   65  131 1    
   130   66   67 am   BACKBONE|DICT|INTERRES
   131   66   68 2    
   132   67  132 1    
   133   67  133 1    
   134   69   70 1    
   135   69  134 1    
   136   69  135 1    
   137   70   71 1    
   138   71  136 1    
   139   71  137 1    
@<TRIPOS>SUBSTRUCTURE
     1 UNK         1 GROUP             0       ****    0 ROOT    
