@<TRIPOS>MOLECULE
3R137
137   139    1
SMALL
USER_CHARGES


@<TRIPOS>ATOM
      1 CA         23.5047    0.8935   -6.8604 C.3       0 UNK        -0.2020 
      2 C          23.4961   -0.6174   -6.6807 C.2       0 UNK         0.4855 
      3 O          22.6810   -1.3066   -7.2950 O.2       0 UNK        -0.5197 
      4 N          24.4038   -1.1304   -5.8468 N.am      1 UNK        -0.4892 
      5 CA         24.5192   -2.5376   -5.4667 C.3       1 UNK         0.0835 
      6 C6         26.0111   -2.9094   -5.2617 C.3       12 UNK        -0.0855 
      7 S7         26.3470   -4.6723   -5.5897 S.3       12 UNK        -0.2931 
      8 C8         27.9572   -4.5750   -6.4447 C.3       12 UNK         0.0378 
      9 C9         29.0747   -3.9171   -5.6333 C.ar      12 UNK        -0.0802 
     10 C10        30.0998   -3.2510   -6.3118 C.ar      12 UNK        -0.0944 
     11 C11        31.1599   -2.6581   -5.6195 C.ar      12 UNK        -0.0787 
     12 C12        31.1857   -2.7391   -4.2211 C.ar      12 UNK        -0.0862 
     13 C13        30.1689   -3.3991   -3.5247 C.ar      12 UNK        -0.0733 
     14 C14        29.1240   -3.9939   -4.2354 C.ar      12 UNK        -0.0832 
     15 C15        30.2114   -3.4959   -2.0048 C.3       12 UNK         0.0240 
     16 S16        28.9796   -2.4162   -1.2047 S.3       12 UNK        -0.2522 
     17 C17        29.5367   -0.7622   -1.7348 C.3       12 UNK        -0.0967 
     18 CA         28.5757   -0.1508   -2.7854 C.3       5 UNK         0.0660 
     19 N          27.2578    0.1388   -2.2048 N.am      5 UNK        -0.4015 
     20 C          26.1291    0.3672   -2.8860 C.2       4 UNK         0.4946 
     21 O          26.0487    0.2970   -4.1158 O.2       4 UNK        -0.5353 
     22 CA         24.8943    0.7373   -2.0531 C.3       4 UNK         0.0277 
     23 CB         23.7836    1.3832   -2.9031 C.3       4 UNK        -0.1981 
     24 N          24.3646   -0.4459   -1.3761 N.am      4 UNK        -0.4209 
     25 C          24.7717   -0.8769   -0.1728 C.2       3 UNK         0.4942 
     26 O          25.6672   -0.3262    0.4701 O.2       3 UNK        -0.5208 
     27 CA         24.0649   -2.1029    0.4377 C.3       3 UNK         0.0250 
     28 CB         23.0222   -1.6545    1.4750 C.3       3 UNK        -0.1990 
     29 N          23.4098   -2.9517   -0.5596 N.am      3 UNK        -0.4232 
     30 C          24.0494   -3.8439   -1.3258 C.2       2 UNK         0.4993 
     31 O          25.2487   -4.1022   -1.2182 O.2       2 UNK        -0.5286 
     32 CA         23.2382   -4.5435   -2.4341 C.3       2 UNK         0.0209 
     33 CB         21.7031   -4.4155   -2.2919 C.3       2 UNK        -0.1931 
     34 N          23.6946   -4.0790   -3.7494 N.am      2 UNK        -0.4546 
     35 C          23.6963   -2.8122   -4.1892 C.2       1 UNK         0.5154 
     36 O          23.1330   -1.8885   -3.5938 O.2       1 UNK        -0.5181 
     37 C          29.1727    1.0989   -3.4731 C.2       5 UNK         0.5014 
     38 O          30.1932    1.6292   -3.0317 O.2       5 UNK        -0.5248 
     39 N          28.5013    1.5525   -4.5347 N.am      6 UNK        -0.4434 
     40 CA         28.8523    2.6926   -5.3773 C.3       6 UNK         0.0363 
     41 CB         28.2437    3.9813   -4.7921 C.3       6 UNK        -0.1936 
     42 C          28.4127    2.4235   -6.8276 C.2       6 UNK         0.5081 
     43 O          28.0170    3.3507   -7.5357 O.2       6 UNK        -0.5248 
     44 N          28.4585    1.1477   -7.2356 N.am      7 UNK        -0.4718 
     45 CA         28.1178    0.6821   -8.5802 C.3       7 UNK         0.0273 
     46 CB         27.8675   -0.8341   -8.5241 C.3       7 UNK        -0.1935 
     47 C          29.2158    1.0157   -9.6047 C.2       7 UNK         0.5018 
     48 O          30.3513    1.3137   -9.2265 O.2       7 UNK        -0.5186 
     49 N          28.8643    0.9069  -10.8938 N.am      8 UNK        -0.4240 
     50 CA         29.7237    1.2027  -12.0488 C.3       8 UNK         0.0235 
     51 CB         28.8999    1.0497  -13.3381 C.3       8 UNK        -0.2000 
     52 C          31.0197    0.3730  -12.1411 C.2       8 UNK         0.4941 
     53 O          31.9456    0.7862  -12.8419 O.2       8 UNK        -0.5273 
     54 N          31.0912   -0.7556  -11.4217 N.am      9 UNK        -0.4262 
     55 CA         32.2752   -1.6023  -11.2542 C.3       9 UNK         0.0264 
     56 CB         31.8268   -2.9719  -10.7087 C.3       9 UNK        -0.1955 
     57 C          33.3476   -0.9364  -10.3639 C.2       9 UNK         0.5031 
     58 O          33.6929   -1.4700   -9.3103 O.2       9 UNK        -0.5390 
     59 N          33.8326    0.2352  -10.7935 N.am      10 UNK        -0.4204 
     60 CA         34.8725    1.0922  -10.2057 C.3       10 UNK         0.0237 
     61 CB         36.2148    0.3409  -10.0948 C.3       10 UNK        -0.1985 
     62 C          34.5177    1.7824   -8.8726 C.2       10 UNK         0.4970 
     63 O          35.1298    2.8094   -8.5747 O.2       10 UNK        -0.4914 
     64 N          33.5717    1.2412   -8.0948 N.am      11 UNK        -0.4285 
     65 CA         33.1427    1.7943   -6.7983 C.3       11 UNK         0.1007 
     66 C          32.4528    3.1832   -6.8931 C.2       11 UNK         0.5703 
     67 N          31.6502    3.4436   -7.9153 N.am      11 UNK        -0.7361 
     68 O          32.6563    4.0350   -6.0317 O.2       11 UNK        -0.4986 
     69 C69        32.2765    0.7950   -5.9892 C.3       12 UNK        -0.0947 
     70 S70        33.2153   -0.7040   -5.5504 S.3       12 UNK        -0.2240 
     71 C71        32.2914   -2.0145   -6.4217 C.3       12 UNK         0.0194 
     72 H72        22.5574    1.3162   -6.5271 H         1 UNK         0.0906 
     73 H73        24.3059    1.3651   -6.2905 H         1 UNK         0.0906 
     74 H74        23.6427    1.1468   -7.9111 H         1 UNK         0.0906 
     75 H75        24.9978   -0.5030   -5.3034 H         1 UNK         0.3140 
     76 H76        24.1026   -3.1514   -6.2686 H         1 UNK         0.1085 
     77 H77        26.3617   -2.6520   -4.2592 H         1 UNK         0.0836 
     78 H78        26.6342   -2.3237   -5.9380 H         1 UNK         0.0836 
     79 H79        28.2713   -5.5854   -6.7090 H         1 UNK         0.0731 
     80 H80        27.8118   -4.0409   -7.3853 H         1 UNK         0.0731 
     81 H81        30.0867   -3.2157   -7.3925 H         1 UNK         0.1312 
     82 H82        32.0072   -2.3066   -3.6678 H         1 UNK         0.1406 
     83 H83        28.3504   -4.5166   -3.6898 H         1 UNK         0.1631 
     84 H84        31.2047   -3.2488   -1.6267 H         1 UNK         0.0717 
     85 H85        30.0211   -4.5273   -1.7045 H         1 UNK         0.0717 
     86 H86        30.5513   -0.8395   -2.1295 H         1 UNK         0.0934 
     87 H87        29.6095   -0.1177   -0.8569 H         1 UNK         0.0934 
     88 H88        28.4371   -0.8939   -3.5746 H         1 UNK         0.0739 
     89 H89        27.2145    0.1736   -1.1942 H         1 UNK         0.3093 
     90 H90        25.2038    1.4779   -1.3122 H         1 UNK         0.0818 
     91 H91        22.9421    1.6931   -2.2837 H         1 UNK         0.0819 
     92 H92        24.1533    2.2721   -3.4158 H         1 UNK         0.0819 
     93 H93        23.4022    0.7053   -3.6661 H         1 UNK         0.0819 
     94 H94        23.6989   -0.9988   -1.9086 H         1 UNK         0.3041 
     95 H95        24.8250   -2.6921    0.9557 H         1 UNK         0.0784 
     96 H96        23.4832   -1.0437    2.2527 H         1 UNK         0.0793 
     97 H97        22.2291   -1.0592    1.0207 H         1 UNK         0.0793 
     98 H98        22.5605   -2.5097    1.9691 H         1 UNK         0.0793 
     99 H99        22.4283   -2.7859   -0.7314 H         1 UNK         0.3024 
    100 H100       23.4884   -5.6038   -2.3685 H         1 UNK         0.1171 
    101 H101       21.1943   -4.9972   -3.0606 H         1 UNK         0.0786 
    102 H102       21.3529   -3.3868   -2.3794 H         1 UNK         0.0786 
    103 H103       21.3655   -4.7999   -1.3284 H         1 UNK         0.0786 
    104 H104       24.2382   -4.7487   -4.2797 H         1 UNK         0.2977 
    105 H105       27.6196    1.0905   -4.7544 H         1 UNK         0.3127 
    106 H106       29.9374    2.8022   -5.3951 H         1 UNK         0.0770 
    107 H107       27.1541    3.9371   -4.7751 H         1 UNK         0.0814 
    108 H108       28.5292    4.8530   -5.3822 H         1 UNK         0.0814 
    109 H109       28.5892    4.1560   -3.7732 H         1 UNK         0.0814 
    110 H110       28.8376    0.4587   -6.6038 H         1 UNK         0.2983 
    111 H111       27.1976    1.1797   -8.8949 H         1 UNK         0.0947 
    112 H112       27.5989   -1.2331   -9.5030 H         1 UNK         0.0806 
    113 H113       27.0433   -1.0690   -7.8516 H         1 UNK         0.0806 
    114 H114       28.7494   -1.3751   -8.1817 H         1 UNK         0.0806 
    115 H115       27.9149    0.6370  -11.1089 H         1 UNK         0.3000 
    116 H116       30.0291    2.2476  -11.9612 H         1 UNK         0.0850 
    117 H117       29.4985    1.2948  -14.2170 H         1 UNK         0.0810 
    118 H118       28.0382    1.7175  -13.3421 H         1 UNK         0.0810 
    119 H119       28.5369    0.0291  -13.4663 H         1 UNK         0.0810 
    120 H120       30.2904   -0.9934  -10.8563 H         1 UNK         0.3040 
    121 H121       32.7261   -1.7644  -12.2356 H         1 UNK         0.0766 
    122 H122       32.6772   -3.6467  -10.6019 H         1 UNK         0.0812 
    123 H123       31.1160   -3.4542  -11.3799 H         1 UNK         0.0812 
    124 H124       31.3573   -2.8828   -9.7283 H         1 UNK         0.0812 
    125 H125       33.3991    0.6001  -11.6400 H         1 UNK         0.3205 
    126 H126       35.0128    1.8988  -10.9271 H         1 UNK         0.0754 
    127 H127       37.0127    1.0132   -9.7761 H         1 UNK         0.0769 
    128 H128       36.5133   -0.0830  -11.0536 H         1 UNK         0.0769 
    129 H129       36.1684   -0.4706   -9.3679 H         1 UNK         0.0769 
    130 H130       33.1577    0.3634   -8.3800 H         1 UNK         0.2981 
    131 H131       34.0550    1.9602   -6.2213 H         1 UNK         0.0541 
    132 H132       31.3806    2.6973   -8.5520 H         1 UNK         0.3459 
    133 H133       31.2117    4.3469   -7.9849 H         1 UNK         0.3459 
    134 H134       31.3706    0.5330   -6.5380 H         1 UNK         0.0612 
    135 H135       31.9484    1.2477   -5.0527 H         1 UNK         0.0612 
    136 H136       31.9040   -1.6124   -7.3587 H         1 UNK         0.0624 
    137 H137       32.9978   -2.7986   -6.6965 H         1 UNK         0.0624 
@<TRIPOS>BOND
     1    1    2 1    
     2    1   72 1    
     3    1   73 1    
     4    1   74 1    
     5    2    3 2    
     6    2    4 am   BACKBONE|DICT|INTERRES
     7    4    5 1    
     8    4   75 1    
     9    5    6 1    
    10    5   35 1    
    11    5   76 1    
    12    6    7 1    
    13    6   77 1    
    14    6   78 1    
    15    7    8 1    
    16    8    9 1    
    17    8   79 1    
    18    8   80 1    
    19    9   10 ar   
    20    9   14 ar   
    21   10   11 ar   
    22   10   81 1    
    23   11   12 ar   
    24   11   71 1    
    25   12   13 ar   
    26   12   82 1    
    27   13   14 ar   
    28   13   15 1    
    29   14   83 1    
    30   15   16 1    
    31   15   84 1    
    32   15   85 1    
    33   16   17 1    
    34   17   18 1    
    35   17   86 1    
    36   17   87 1    
    37   18   19 1    
    38   18   37 1    
    39   18   88 1    
    40   19   20 am   BACKBONE|DICT|INTERRES
    41   19   89 1    
    42   20   21 2    
    43   20   22 1    
    44   22   23 1    
    45   22   24 1    
    46   22   90 1    
    47   23   91 1    
    48   23   92 1    
    49   23   93 1    
    50   24   25 am   BACKBONE|DICT|INTERRES
    51   24   94 1    
    52   25   26 2    
    53   25   27 1    
    54   27   28 1    
    55   27   29 1    
    56   27   95 1    
    57   28   96 1    
    58   28   97 1    
    59   28   98 1    
    60   29   30 am   BACKBONE|DICT|INTERRES
    61   29   99 1    
    62   30   31 2    
    63   30   32 1    
    64   32   33 1    
    65   32   34 1    
    66   32  100 1    
    67   33  101 1    
    68   33  102 1    
    69   33  103 1    
    70   34   35 am   BACKBONE|DICT|INTERRES
    71   34  104 1    
    72   35   36 2    
    73   37   38 2    
    74   37   39 am   BACKBONE|DICT|INTERRES
    75   39   40 1    
    76   39  105 1    
    77   40   41 1    
    78   40   42 1    
    79   40  106 1    
    80   41  107 1    
    81   41  108 1    
    82   41  109 1    
    83   42   43 2    
    84   42   44 am   BACKBONE|DICT|INTERRES
    85   44   45 1    
    86   44  110 1    
    87   45   46 1    
    88   45   47 1    
    89   45  111 1    
    90   46  112 1    
    91   46  113 1    
    92   46  114 1    
    93   47   48 2    
    94   47   49 am   BACKBONE|DICT|INTERRES
    95   49   50 1    
    96   49  115 1    
    97   50   51 1    
    98   50   52 1    
    99   50  116 1    
   100   51  117 1    
   101   51  118 1    
   102   51  119 1    
   103   52   53 2    
   104   52   54 am   BACKBONE|DICT|INTERRES
   105   54   55 1    
   106   54  120 1    
   107   55   56 1    
   108   55   57 1    
   109   55  121 1    
   110   56  122 1    
   111   56  123 1    
   112   56  124 1    
   113   57   58 2    
   114   57   59 am   BACKBONE|DICT|INTERRES
   115   59   60 1    
   116   59  125 1    
   117   60   61 1    
   118   60   62 1    
   119   60  126 1    
   120   61  127 1    
   121   61  128 1    
   122   61  129 1    
   123   62   63 2    
   124   62   64 am   BACKBONE|DICT|INTERRES
   125   64   65 1    
   126   64  130 1    
   127   65   66 1    
   128   65   69 1    
   129   65  131 1    
   130   66   67 am   BACKBONE|DICT|INTERRES
   131   66   68 2    
   132   67  132 1    
   133   67  133 1    
   134   69   70 1    
   135   69  134 1    
   136   69  135 1    
   137   70   71 1    
   138   71  136 1    
   139   71  137 1    
@<TRIPOS>SUBSTRUCTURE
     1 UNK         1 GROUP             0       ****    0 ROOT    
