@<TRIPOS>MOLECULE
3R137
137   139    1
SMALL
USER_CHARGES


@<TRIPOS>ATOM
      1 CA         27.5342   -6.6279    1.2668 C.3       0 UNK        -0.2020 
      2 C          27.3812   -5.2592    0.6203 C.2       0 UNK         0.4855 
      3 O          27.5247   -5.1530   -0.5974 O.2       0 UNK        -0.5197 
      4 N          27.0782   -4.2362    1.4358 N.am      1 UNK        -0.4892 
      5 CA         26.8860   -2.7956    1.1667 C.3       1 UNK         0.0835 
      6 C6         28.1974   -1.9672    1.0309 C.3       12 UNK        -0.0855 
      7 S7         29.3760   -2.4988   -0.2563 S.3       12 UNK        -0.2931 
      8 C8         28.9409   -1.3899   -1.6276 C.3       12 UNK         0.0378 
      9 C9         29.6572   -1.8020   -2.9030 C.ar      12 UNK        -0.0802 
     10 C10        30.7734   -1.0923   -3.3527 C.ar      12 UNK        -0.0944 
     11 C11        31.4381   -1.4807   -4.5199 C.ar      12 UNK        -0.0787 
     12 C12        30.9731   -2.5844   -5.2439 C.ar      12 UNK        -0.0862 
     13 C13        29.8582   -3.3049   -4.8003 C.ar      12 UNK        -0.0733 
     14 C14        29.2043   -2.9055   -3.6303 C.ar      12 UNK        -0.0832 
     15 C15        29.3931   -4.5477   -5.5496 C.3       12 UNK         0.0240 
     16 S16        28.4094   -4.1630   -7.0337 S.3       12 UNK        -0.2522 
     17 C17        26.8793   -3.4715   -6.3147 C.3       12 UNK        -0.0967 
     18 CA         26.3794   -2.2078   -7.0546 C.3       5 UNK         0.0660 
     19 N          25.0653   -1.7767   -6.5818 N.am      5 UNK        -0.4015 
     20 C          24.2059   -1.0436   -7.3053 C.2       4 UNK         0.4946 
     21 O          24.3765   -0.7573   -8.4902 O.2       4 UNK        -0.5353 
     22 CA         22.9494   -0.5204   -6.5856 C.3       4 UNK         0.0277 
     23 CB         21.7818   -1.5053   -6.7570 C.3       4 UNK        -0.1981 
     24 N          23.1639   -0.2627   -5.1591 N.am      4 UNK        -0.4209 
     25 C          23.9842    0.6789   -4.6703 C.2       3 UNK         0.4942 
     26 O          24.6044    1.4766   -5.3720 O.2       3 UNK        -0.5208 
     27 CA         24.1886    0.6967   -3.1449 C.3       3 UNK         0.0250 
     28 CB         23.1502    1.6085   -2.4731 C.3       3 UNK        -0.1990 
     29 N          24.1494   -0.6335   -2.5252 N.am      3 UNK        -0.4232 
     30 C          24.9723   -1.6476   -2.8268 C.2       2 UNK         0.4993 
     31 O          25.8584   -1.5760   -3.6818 O.2       2 UNK        -0.5286 
     32 CA         24.7480   -2.9686   -2.0722 C.3       2 UNK         0.0209 
     33 CB         24.8304   -4.1749   -3.0242 C.3       2 UNK        -0.1931 
     34 N          25.7118   -3.1555   -0.9879 N.am      2 UNK        -0.4546 
     35 C          25.8157   -2.4103    0.1171 C.2       1 UNK         0.5154 
     36 O          25.0757   -1.4532    0.3512 O.2       1 UNK        -0.5181 
     37 C          27.3667   -1.0303   -6.9721 C.2       5 UNK         0.5014 
     38 O          28.0271   -0.7425   -7.9682 O.2       5 UNK        -0.5248 
     39 N          27.4061   -0.3328   -5.8257 N.am      6 UNK        -0.4434 
     40 CA         28.2809    0.8212   -5.5752 C.3       6 UNK         0.0363 
     41 CB         28.0320    1.3576   -4.1574 C.3       6 UNK        -0.1936 
     42 C          28.1321    1.9639   -6.5982 C.2       6 UNK         0.5081 
     43 O          29.1212    2.6125   -6.9367 O.2       6 UNK        -0.5248 
     44 N          26.9016    2.1851   -7.0775 N.am      7 UNK        -0.4718 
     45 CA         26.5753    3.1619   -8.1168 C.3       7 UNK         0.0273 
     46 CB         25.0644    3.4430   -8.0667 C.3       7 UNK        -0.1935 
     47 C          26.9868    2.7302   -9.5383 C.2       7 UNK         0.5018 
     48 O          27.0687    3.5945  -10.4126 O.2       7 UNK        -0.5186 
     49 N          27.1979    1.4261   -9.7636 N.am      8 UNK        -0.4240 
     50 CA         27.4614    0.8412  -11.0808 C.3       8 UNK         0.0235 
     51 CB         26.5323   -0.3677  -11.2836 C.3       8 UNK        -0.2000 
     52 C          28.9270    0.4176  -11.2553 C.2       8 UNK         0.4941 
     53 O          29.4829    0.6130  -12.3376 O.2       8 UNK        -0.5273 
     54 N          29.5165   -0.1826  -10.2144 N.am      9 UNK        -0.4262 
     55 CA         30.8816   -0.7055  -10.2043 C.3       9 UNK         0.0264 
     56 CB         31.0510   -1.6195   -8.9785 C.3       9 UNK        -0.1955 
     57 C          31.9408    0.4077  -10.1951 C.2       9 UNK         0.5031 
     58 O          31.6992    1.5012   -9.6769 O.2       9 UNK        -0.5390 
     59 N          33.1269    0.0867  -10.7256 N.am      10 UNK        -0.4204 
     60 CA         34.3113    0.9465  -10.7154 C.3       10 UNK         0.0237 
     61 CB         35.2256    0.5541  -11.8917 C.3       10 UNK        -0.1985 
     62 C          35.0252    0.8627   -9.3534 C.2       10 UNK         0.4970 
     63 O          36.1230    0.3096   -9.2644 O.2       10 UNK        -0.4914 
     64 N          34.3661    1.3821   -8.3112 N.am      11 UNK        -0.4285 
     65 CA         34.8442    1.3762   -6.9185 C.3       11 UNK         0.1007 
     66 C          36.0972    2.2604   -6.6464 C.2       11 UNK         0.5703 
     67 N          36.4612    3.1901   -7.5221 N.am      11 UNK        -0.7361 
     68 O          36.7533    2.0943   -5.6207 O.2       11 UNK        -0.4986 
     69 C69        33.7122    1.7240   -5.9167 C.3       12 UNK        -0.0947 
     70 S70        32.2382    0.6609   -6.0686 S.3       12 UNK        -0.2240 
     71 C71        32.6752   -0.7191   -4.9710 C.3       12 UNK         0.0194 
     72 H72        26.8141   -7.3261    0.8409 H         1 UNK         0.0906 
     73 H73        28.5352   -7.0174    1.0831 H         1 UNK         0.0906 
     74 H74        27.3770   -6.5938    2.3447 H         1 UNK         0.0906 
     75 H75        26.9556   -4.4671    2.4124 H         1 UNK         0.3140 
     76 H76        26.4388   -2.4473    2.0999 H         1 UNK         0.1085 
     77 H77        27.9706   -0.9074    0.8967 H         1 UNK         0.0836 
     78 H78        28.7356   -2.0182    1.9786 H         1 UNK         0.0836 
     79 H79        27.8648   -1.4124   -1.7967 H         1 UNK         0.0731 
     80 H80        29.1918   -0.3634   -1.3558 H         1 UNK         0.0731 
     81 H81        31.1315   -0.2410   -2.7902 H         1 UNK         0.1312 
     82 H82        31.4866   -2.8925   -6.1443 H         1 UNK         0.1406 
     83 H83        28.3505   -3.4619   -3.2666 H         1 UNK         0.1631 
     84 H84        28.8116   -5.1975   -4.8936 H         1 UNK         0.0717 
     85 H85        30.2646   -5.1298   -5.8527 H         1 UNK         0.0717 
     86 H86        26.1163   -4.2501   -6.3593 H         1 UNK         0.0934 
     87 H87        27.0253   -3.2613   -5.2573 H         1 UNK         0.0934 
     88 H88        26.2823   -2.4730   -8.1102 H         1 UNK         0.0739 
     89 H89        24.8864   -1.9044   -5.5948 H         1 UNK         0.3093 
     90 H90        22.6733    0.4253   -7.0574 H         1 UNK         0.0818 
     91 H91        20.8618   -1.1100   -6.3258 H         1 UNK         0.0819 
     92 H92        21.5855   -1.6958   -7.8133 H         1 UNK         0.0819 
     93 H93        21.9891   -2.4670   -6.2860 H         1 UNK         0.0819 
     94 H94        22.6821   -0.8635   -4.5063 H         1 UNK         0.3041 
     95 H95        25.1786    1.1121   -2.9517 H         1 UNK         0.0784 
     96 H96        23.1776    2.6117   -2.9012 H         1 UNK         0.0793 
     97 H97        22.1355    1.2283   -2.5977 H         1 UNK         0.0793 
     98 H98        23.3431    1.7095   -1.4048 H         1 UNK         0.0793 
     99 H99        23.4835   -0.7609   -1.7758 H         1 UNK         0.3024 
    100 H100       23.7468   -2.9544   -1.6361 H         1 UNK         0.1171 
    101 H101       24.1573   -4.0551   -3.8741 H         1 UNK         0.0786 
    102 H102       24.5487   -5.0972   -2.5157 H         1 UNK         0.0786 
    103 H103       25.8379   -4.3108   -3.4181 H         1 UNK         0.0786 
    104 H104       26.3770   -3.9239   -1.0774 H         1 UNK         0.2977 
    105 H105       26.8424   -0.6575   -5.0439 H         1 UNK         0.3127 
    106 H106       29.3062    0.4526   -5.6311 H         1 UNK         0.0770 
    107 H107       27.0761    1.8763   -4.0872 H         1 UNK         0.0814 
    108 H108       28.8085    2.0688   -3.8735 H         1 UNK         0.0814 
    109 H109       28.0331    0.5593   -3.4185 H         1 UNK         0.0814 
    110 H110       26.1255    1.6716   -6.6695 H         1 UNK         0.2983 
    111 H111       27.1042    4.0912   -7.8939 H         1 UNK         0.0947 
    112 H112       24.7775    4.1879   -8.8102 H         1 UNK         0.0806 
    113 H113       24.7649    3.8271   -7.0912 H         1 UNK         0.0806 
    114 H114       24.4820    2.5414   -8.2632 H         1 UNK         0.0806 
    115 H115       27.1853    0.7856   -8.9768 H         1 UNK         0.3000 
    116 H116       27.2360    1.5654  -11.8667 H         1 UNK         0.0850 
    117 H117       26.6955   -0.8291  -12.2585 H         1 UNK         0.0810 
    118 H118       25.4839   -0.0723  -11.2348 H         1 UNK         0.0810 
    119 H119       26.6945   -1.1353  -10.5255 H         1 UNK         0.0810 
    120 H120       28.9832   -0.3116   -9.3542 H         1 UNK         0.3040 
    121 H121       31.0177   -1.3054  -11.1066 H         1 UNK         0.0766 
    122 H122       32.0619   -2.0239   -8.9165 H         1 UNK         0.0812 
    123 H123       30.3638   -2.4651   -9.0170 H         1 UNK         0.0812 
    124 H124       30.8560   -1.0811   -8.0504 H         1 UNK         0.0812 
    125 H125       33.2554   -0.8450  -11.0944 H         1 UNK         0.3205 
    126 H126       34.0052    1.9843  -10.8655 H         1 UNK         0.0754 
    127 H127       36.1160    1.1838  -11.9202 H         1 UNK         0.0769 
    128 H128       34.7149    0.6755  -12.8473 H         1 UNK         0.0769 
    129 H129       35.5605   -0.4816  -11.8200 H         1 UNK         0.0769 
    130 H130       33.4366    1.7555   -8.4687 H         1 UNK         0.2981 
    131 H131       35.1576    0.3526   -6.7043 H         1 UNK         0.0541 
    132 H132       37.2763    3.7526   -7.3352 H         1 UNK         0.3459 
    133 H133       35.9279    3.3367   -8.3637 H         1 UNK         0.3459 
    134 H134       33.3865    2.7548   -6.0679 H         1 UNK         0.0612 
    135 H135       34.0742    1.6746   -4.8882 H         1 UNK         0.0612 
    136 H136       33.3655   -1.3850   -5.4909 H         1 UNK         0.0624 
    137 H137       33.2086   -0.3440   -4.0964 H         1 UNK         0.0624 
@<TRIPOS>BOND
     1    1    2 1    
     2    1   72 1    
     3    1   73 1    
     4    1   74 1    
     5    2    3 2    
     6    2    4 am   BACKBONE|DICT|INTERRES
     7    4    5 1    
     8    4   75 1    
     9    5    6 1    
    10    5   35 1    
    11    5   76 1    
    12    6    7 1    
    13    6   77 1    
    14    6   78 1    
    15    7    8 1    
    16    8    9 1    
    17    8   79 1    
    18    8   80 1    
    19    9   10 ar   
    20    9   14 ar   
    21   10   11 ar   
    22   10   81 1    
    23   11   12 ar   
    24   11   71 1    
    25   12   13 ar   
    26   12   82 1    
    27   13   14 ar   
    28   13   15 1    
    29   14   83 1    
    30   15   16 1    
    31   15   84 1    
    32   15   85 1    
    33   16   17 1    
    34   17   18 1    
    35   17   86 1    
    36   17   87 1    
    37   18   19 1    
    38   18   37 1    
    39   18   88 1    
    40   19   20 am   BACKBONE|DICT|INTERRES
    41   19   89 1    
    42   20   21 2    
    43   20   22 1    
    44   22   23 1    
    45   22   24 1    
    46   22   90 1    
    47   23   91 1    
    48   23   92 1    
    49   23   93 1    
    50   24   25 am   BACKBONE|DICT|INTERRES
    51   24   94 1    
    52   25   26 2    
    53   25   27 1    
    54   27   28 1    
    55   27   29 1    
    56   27   95 1    
    57   28   96 1    
    58   28   97 1    
    59   28   98 1    
    60   29   30 am   BACKBONE|DICT|INTERRES
    61   29   99 1    
    62   30   31 2    
    63   30   32 1    
    64   32   33 1    
    65   32   34 1    
    66   32  100 1    
    67   33  101 1    
    68   33  102 1    
    69   33  103 1    
    70   34   35 am   BACKBONE|DICT|INTERRES
    71   34  104 1    
    72   35   36 2    
    73   37   38 2    
    74   37   39 am   BACKBONE|DICT|INTERRES
    75   39   40 1    
    76   39  105 1    
    77   40   41 1    
    78   40   42 1    
    79   40  106 1    
    80   41  107 1    
    81   41  108 1    
    82   41  109 1    
    83   42   43 2    
    84   42   44 am   BACKBONE|DICT|INTERRES
    85   44   45 1    
    86   44  110 1    
    87   45   46 1    
    88   45   47 1    
    89   45  111 1    
    90   46  112 1    
    91   46  113 1    
    92   46  114 1    
    93   47   48 2    
    94   47   49 am   BACKBONE|DICT|INTERRES
    95   49   50 1    
    96   49  115 1    
    97   50   51 1    
    98   50   52 1    
    99   50  116 1    
   100   51  117 1    
   101   51  118 1    
   102   51  119 1    
   103   52   53 2    
   104   52   54 am   BACKBONE|DICT|INTERRES
   105   54   55 1    
   106   54  120 1    
   107   55   56 1    
   108   55   57 1    
   109   55  121 1    
   110   56  122 1    
   111   56  123 1    
   112   56  124 1    
   113   57   58 2    
   114   57   59 am   BACKBONE|DICT|INTERRES
   115   59   60 1    
   116   59  125 1    
   117   60   61 1    
   118   60   62 1    
   119   60  126 1    
   120   61  127 1    
   121   61  128 1    
   122   61  129 1    
   123   62   63 2    
   124   62   64 am   BACKBONE|DICT|INTERRES
   125   64   65 1    
   126   64  130 1    
   127   65   66 1    
   128   65   69 1    
   129   65  131 1    
   130   66   67 am   BACKBONE|DICT|INTERRES
   131   66   68 2    
   132   67  132 1    
   133   67  133 1    
   134   69   70 1    
   135   69  134 1    
   136   69  135 1    
   137   70   71 1    
   138   71  136 1    
   139   71  137 1    
@<TRIPOS>SUBSTRUCTURE
     1 UNK         1 GROUP             0       ****    0 ROOT    
