@<TRIPOS>MOLECULE
3R137
137   139    1
SMALL
USER_CHARGES


@<TRIPOS>ATOM
      1 CA         28.7955   -5.6488   -6.9225 C.3       0 UNK        -0.2020 
      2 C          27.9797   -5.7365   -5.6425 C.2       0 UNK         0.4855 
      3 O          27.4949   -6.8123   -5.2928 O.2       0 UNK        -0.5197 
      4 N          27.8122   -4.6030   -4.9492 N.am      1 UNK        -0.4892 
      5 CA         27.0457   -4.4885   -3.6988 C.3       1 UNK         0.0835 
      6 C6         27.6041   -3.3485   -2.8057 C.3       12 UNK        -0.0855 
      7 S7         28.9696   -3.9430   -1.7497 S.3       12 UNK        -0.2931 
      8 C8         30.4528   -3.4107   -2.6738 C.3       12 UNK         0.0378 
      9 C9         30.8401   -1.9324   -2.5568 C.ar      12 UNK        -0.0802 
     10 C10        32.0402   -1.5220   -3.1442 C.ar      12 UNK        -0.0944 
     11 C11        32.4619   -0.1925   -3.0716 C.ar      12 UNK        -0.0787 
     12 C12        31.6658    0.7418   -2.4026 C.ar      12 UNK        -0.0862 
     13 C13        30.4551    0.3614   -1.8127 C.ar      12 UNK        -0.0733 
     14 C14        30.0602   -0.9821   -1.8838 C.ar      12 UNK        -0.0832 
     15 C15        29.6301    1.4191   -1.0728 C.3       12 UNK         0.0240 
     16 S16        27.8630    1.0097   -0.8291 S.3       12 UNK        -0.2522 
     17 C17        27.0551    1.6498   -2.3345 C.3       12 UNK        -0.0967 
     18 CA         27.0286    0.6206   -3.5084 C.3       5 UNK         0.0660 
     19 N          25.7414    0.6033   -4.2067 N.am      5 UNK        -0.4015 
     20 C          25.2234    1.5730   -4.9751 C.2       4 UNK         0.4946 
     21 O          25.8330    2.6004   -5.2776 O.2       4 UNK        -0.5353 
     22 CA         23.7835    1.3741   -5.4938 C.3       4 UNK         0.0277 
     23 CB         23.7186    1.4487   -7.0283 C.3       4 UNK        -0.1981 
     24 N          23.1574    0.1235   -5.0492 N.am      4 UNK        -0.4209 
     25 C          22.6417   -0.0990   -3.8343 C.2       3 UNK         0.4942 
     26 O          22.6596    0.7348   -2.9290 O.2       3 UNK        -0.5208 
     27 CA         22.0208   -1.4817   -3.5622 C.3       3 UNK         0.0250 
     28 CB         20.5415   -1.5095   -3.9936 C.3       3 UNK        -0.1990 
     29 N          22.7576   -2.6322   -4.1120 N.am      3 UNK        -0.4232 
     30 C          22.9686   -2.9794   -5.3890 C.2       2 UNK         0.4993 
     31 O          22.6500   -2.2792   -6.3517 O.2       2 UNK        -0.5286 
     32 CA         23.6745   -4.3292   -5.6180 C.3       2 UNK         0.0209 
     33 CB         23.5933   -4.7945   -7.0846 C.3       2 UNK        -0.1931 
     34 N          25.0798   -4.3135   -5.2003 N.am      2 UNK        -0.4546 
     35 C          25.5211   -4.3630   -3.9348 C.2       1 UNK         0.5154 
     36 O          24.7618   -4.3378   -2.9640 O.2       1 UNK        -0.5181 
     37 C          28.1860    0.7339   -4.5227 C.2       5 UNK         0.5014 
     38 O          28.3715   -0.1857   -5.3248 O.2       5 UNK        -0.5248 
     39 N          28.9121    1.8592   -4.5106 N.am      6 UNK        -0.4434 
     40 CA         30.0385    2.1398   -5.3969 C.3       6 UNK         0.0363 
     41 CB         30.7133    3.4538   -4.9742 C.3       6 UNK        -0.1936 
     42 C          29.6622    2.1846   -6.8835 C.2       6 UNK         0.5081 
     43 O          30.4783    1.7957   -7.7176 O.2       6 UNK        -0.5248 
     44 N          28.4314    2.6158   -7.1920 N.am      7 UNK        -0.4718 
     45 CA         27.8973    2.6387   -8.5551 C.3       7 UNK         0.0273 
     46 CB         26.7172    3.6187   -8.6259 C.3       7 UNK        -0.1935 
     47 C          27.4994    1.2435   -9.0694 C.2       7 UNK         0.5018 
     48 O          27.4667    1.0483  -10.2845 O.2       7 UNK        -0.5186 
     49 N          27.2301    0.2973   -8.1564 N.am      8 UNK        -0.4240 
     50 CA         27.0236   -1.1145   -8.4865 C.3       8 UNK         0.0235 
     51 CB         26.1703   -1.8041   -7.4081 C.3       8 UNK        -0.2000 
     52 C          28.3656   -1.8395   -8.6578 C.2       8 UNK         0.4941 
     53 O          28.5184   -2.6184   -9.5984 O.2       8 UNK        -0.5273 
     54 N          29.3087   -1.5731   -7.7430 N.am      9 UNK        -0.4262 
     55 CA         30.6546   -2.1508   -7.7460 C.3       9 UNK         0.0264 
     56 CB         31.3016   -1.8941   -6.3801 C.3       9 UNK        -0.1955 
     57 C          31.5631   -1.6239   -8.8701 C.2       9 UNK         0.5031 
     58 O          32.4558   -2.3535   -9.3032 O.2       9 UNK        -0.5390 
     59 N          31.3387   -0.3712   -9.2944 N.am      10 UNK        -0.4204 
     60 CA         32.1371    0.4080  -10.2490 C.3       10 UNK         0.0237 
     61 CB         32.1334   -0.2372  -11.6517 C.3       10 UNK        -0.1985 
     62 C          33.5529    0.7223   -9.7224 C.2       10 UNK         0.4970 
     63 O          34.4937    0.8260  -10.5116 O.2       10 UNK        -0.4914 
     64 N          33.6751    0.8762   -8.3973 N.am      11 UNK        -0.4285 
     65 CA         34.9199    1.2191   -7.6914 C.3       11 UNK         0.1007 
     66 C          35.2844    2.7328   -7.7215 C.2       11 UNK         0.5703 
     67 N          34.4136    3.6192   -8.1913 N.am      11 UNK        -0.7361 
     68 O          36.3868    3.1067   -7.3278 O.2       11 UNK        -0.4986 
     69 C69        34.9393    0.6327   -6.2530 C.3       12 UNK        -0.0947 
     70 S70        33.5213    1.1615   -5.2373 S.3       12 UNK        -0.2240 
     71 C71        33.7848    0.2234   -3.7028 C.3       12 UNK         0.0194 
     72 H72        29.8513   -5.8150   -6.7102 H         1 UNK         0.0906 
     73 H73        28.4679   -6.4047   -7.6359 H         1 UNK         0.0906 
     74 H74        28.6848   -4.6751   -7.3978 H         1 UNK         0.0906 
     75 H75        28.2407   -3.7507   -5.2807 H         1 UNK         0.3140 
     76 H76        27.1492   -5.4272   -3.1488 H         1 UNK         0.1085 
     77 H77        26.8443   -2.9540   -2.1278 H         1 UNK         0.0836 
     78 H78        27.9349   -2.5026   -3.4096 H         1 UNK         0.0836 
     79 H79        31.2904   -4.0096   -2.3135 H         1 UNK         0.0731 
     80 H80        30.3246   -3.6734   -3.7236 H         1 UNK         0.0731 
     81 H81        32.6548   -2.2471   -3.6605 H         1 UNK         0.1312 
     82 H82        31.9951    1.7700   -2.3419 H         1 UNK         0.1406 
     83 H83        29.1434   -1.2884   -1.4053 H         1 UNK         0.1631 
     84 H84        29.7076    2.3814   -1.5806 H         1 UNK         0.0717 
     85 H85        30.0784    1.5587   -0.0884 H         1 UNK         0.0717 
     86 H86        26.0293    1.8579   -2.0241 H         1 UNK         0.0934 
     87 H87        27.4455    2.6320   -2.6002 H         1 UNK         0.0934 
     88 H88        27.1139   -0.3760   -3.0773 H         1 UNK         0.0739 
     89 H89        25.1680   -0.2107   -4.0464 H         1 UNK         0.3093 
     90 H90        23.1910    2.2016   -5.0977 H         1 UNK         0.0818 
     91 H91        22.7218    1.2078   -7.3983 H         1 UNK         0.0819 
     92 H92        23.9459    2.4562   -7.3739 H         1 UNK         0.0819 
     93 H93        24.4254    0.7705   -7.5041 H         1 UNK         0.0819 
     94 H94        23.0674   -0.6287   -5.7317 H         1 UNK         0.3041 
     95 H95        22.0439   -1.6180   -2.4796 H         1 UNK         0.0784 
     96 H96        19.9794   -0.7101   -3.5087 H         1 UNK         0.0793 
     97 H97        20.4269   -1.3778   -5.0701 H         1 UNK         0.0793 
     98 H98        20.0662   -2.4512   -3.7188 H         1 UNK         0.0793 
     99 H99        23.1720   -3.2474   -3.4163 H         1 UNK         0.3024 
    100 H100       23.1455   -5.0708   -5.0143 H         1 UNK         0.1171 
    101 H101       24.0460   -5.7776   -7.2158 H         1 UNK         0.0786 
    102 H102       24.0900   -4.1019   -7.7639 H         1 UNK         0.0786 
    103 H103       22.5547   -4.8733   -7.4090 H         1 UNK         0.0786 
    104 H104       25.7706   -4.3458   -5.9343 H         1 UNK         0.2977 
    105 H105       28.6650    2.5845   -3.8554 H         1 UNK         0.3127 
    106 H106       30.7448    1.3210   -5.2682 H         1 UNK         0.0770 
    107 H107       30.0332    4.3026   -5.0543 H         1 UNK         0.0814 
    108 H108       31.5767    3.6671   -5.6064 H         1 UNK         0.0814 
    109 H109       31.0735    3.4051   -3.9471 H         1 UNK         0.0814 
    110 H110       27.8002    2.8831   -6.4452 H         1 UNK         0.2983 
    111 H111       28.6775    3.0102   -9.2238 H         1 UNK         0.0947 
    112 H112       26.2632    3.6196   -9.6179 H         1 UNK         0.0806 
    113 H113       27.0403    4.6387   -8.4173 H         1 UNK         0.0806 
    114 H114       25.9401    3.3650   -7.9078 H         1 UNK         0.0806 
    115 H115       27.3310    0.5291   -7.1769 H         1 UNK         0.3000 
    116 H116       26.4842   -1.1871   -9.4338 H         1 UNK         0.0850 
    117 H117       26.0934   -2.8715   -7.6132 H         1 UNK         0.0810 
    118 H118       25.1549   -1.4113   -7.3902 H         1 UNK         0.0810 
    119 H119       26.5902   -1.6959   -6.4090 H         1 UNK         0.0810 
    120 H120       29.0725   -0.9646   -6.9631 H         1 UNK         0.3040 
    121 H121       30.5628   -3.2298   -7.8828 H         1 UNK         0.0766 
    122 H122       32.2926   -2.3458   -6.3199 H         1 UNK         0.0812 
    123 H123       30.6976   -2.3165   -5.5796 H         1 UNK         0.0812 
    124 H124       31.4141   -0.8284   -6.1811 H         1 UNK         0.0812 
    125 H125       30.6434    0.1750   -8.7934 H         1 UNK         0.3205 
    126 H126       31.6338    1.3721  -10.3351 H         1 UNK         0.0754 
    127 H127       32.5871    0.4272  -12.3881 H         1 UNK         0.0769 
    128 H128       31.1179   -0.4469  -11.9879 H         1 UNK         0.0769 
    129 H129       32.6939   -1.1722  -11.6716 H         1 UNK         0.0769 
    130 H130       32.8457    0.8247   -7.8228 H         1 UNK         0.2981 
    131 H131       35.7350    0.7286   -8.2267 H         1 UNK         0.0541 
    132 H132       33.5050    3.3230   -8.5086 H         1 UNK         0.3459 
    133 H133       34.6650    4.5947   -8.2123 H         1 UNK         0.3459 
    134 H134       35.8648    0.8916   -5.7355 H         1 UNK         0.0612 
    135 H135       34.9232   -0.4568   -6.3112 H         1 UNK         0.0612 
    136 H136       34.3960   -0.6564   -3.9091 H         1 UNK         0.0624 
    137 H137       34.3545    0.8360   -3.0029 H         1 UNK         0.0624 
@<TRIPOS>BOND
     1    1    2 1    
     2    1   72 1    
     3    1   73 1    
     4    1   74 1    
     5    2    3 2    
     6    2    4 am   BACKBONE|DICT|INTERRES
     7    4    5 1    
     8    4   75 1    
     9    5    6 1    
    10    5   35 1    
    11    5   76 1    
    12    6    7 1    
    13    6   77 1    
    14    6   78 1    
    15    7    8 1    
    16    8    9 1    
    17    8   79 1    
    18    8   80 1    
    19    9   10 ar   
    20    9   14 ar   
    21   10   11 ar   
    22   10   81 1    
    23   11   12 ar   
    24   11   71 1    
    25   12   13 ar   
    26   12   82 1    
    27   13   14 ar   
    28   13   15 1    
    29   14   83 1    
    30   15   16 1    
    31   15   84 1    
    32   15   85 1    
    33   16   17 1    
    34   17   18 1    
    35   17   86 1    
    36   17   87 1    
    37   18   19 1    
    38   18   37 1    
    39   18   88 1    
    40   19   20 am   BACKBONE|DICT|INTERRES
    41   19   89 1    
    42   20   21 2    
    43   20   22 1    
    44   22   23 1    
    45   22   24 1    
    46   22   90 1    
    47   23   91 1    
    48   23   92 1    
    49   23   93 1    
    50   24   25 am   BACKBONE|DICT|INTERRES
    51   24   94 1    
    52   25   26 2    
    53   25   27 1    
    54   27   28 1    
    55   27   29 1    
    56   27   95 1    
    57   28   96 1    
    58   28   97 1    
    59   28   98 1    
    60   29   30 am   BACKBONE|DICT|INTERRES
    61   29   99 1    
    62   30   31 2    
    63   30   32 1    
    64   32   33 1    
    65   32   34 1    
    66   32  100 1    
    67   33  101 1    
    68   33  102 1    
    69   33  103 1    
    70   34   35 am   BACKBONE|DICT|INTERRES
    71   34  104 1    
    72   35   36 2    
    73   37   38 2    
    74   37   39 am   BACKBONE|DICT|INTERRES
    75   39   40 1    
    76   39  105 1    
    77   40   41 1    
    78   40   42 1    
    79   40  106 1    
    80   41  107 1    
    81   41  108 1    
    82   41  109 1    
    83   42   43 2    
    84   42   44 am   BACKBONE|DICT|INTERRES
    85   44   45 1    
    86   44  110 1    
    87   45   46 1    
    88   45   47 1    
    89   45  111 1    
    90   46  112 1    
    91   46  113 1    
    92   46  114 1    
    93   47   48 2    
    94   47   49 am   BACKBONE|DICT|INTERRES
    95   49   50 1    
    96   49  115 1    
    97   50   51 1    
    98   50   52 1    
    99   50  116 1    
   100   51  117 1    
   101   51  118 1    
   102   51  119 1    
   103   52   53 2    
   104   52   54 am   BACKBONE|DICT|INTERRES
   105   54   55 1    
   106   54  120 1    
   107   55   56 1    
   108   55   57 1    
   109   55  121 1    
   110   56  122 1    
   111   56  123 1    
   112   56  124 1    
   113   57   58 2    
   114   57   59 am   BACKBONE|DICT|INTERRES
   115   59   60 1    
   116   59  125 1    
   117   60   61 1    
   118   60   62 1    
   119   60  126 1    
   120   61  127 1    
   121   61  128 1    
   122   61  129 1    
   123   62   63 2    
   124   62   64 am   BACKBONE|DICT|INTERRES
   125   64   65 1    
   126   64  130 1    
   127   65   66 1    
   128   65   69 1    
   129   65  131 1    
   130   66   67 am   BACKBONE|DICT|INTERRES
   131   66   68 2    
   132   67  132 1    
   133   67  133 1    
   134   69   70 1    
   135   69  134 1    
   136   69  135 1    
   137   70   71 1    
   138   71  136 1    
   139   71  137 1    
@<TRIPOS>SUBSTRUCTURE
     1 UNK         1 GROUP             0       ****    0 ROOT    
