@<TRIPOS>MOLECULE
3R137
137   139    1
SMALL
USER_CHARGES


@<TRIPOS>ATOM
      1 CA         29.3635    1.8416    0.6574 C.3       0 UNK        -0.2020 
      2 C          29.2894    0.4771    1.3389 C.2       0 UNK         0.4855 
      3 O          29.4606    0.4036    2.5540 O.2       0 UNK        -0.5197 
      4 N          29.0490   -0.6290    0.6191 N.am      1 UNK        -0.4892 
      5 CA         28.7818   -0.7235   -0.8243 C.3       1 UNK         0.0835 
      6 C6         28.8043   -2.1945   -1.3094 C.3       12 UNK        -0.0855 
      7 S7         30.4621   -2.9309   -1.1495 S.3       12 UNK        -0.2931 
      8 C8         30.2153   -4.5561   -1.9389 C.3       12 UNK         0.0378 
      9 C9         30.1677   -4.4908   -3.4628 C.ar      12 UNK        -0.0802 
     10 C10        31.2218   -3.9154   -4.1801 C.ar      12 UNK        -0.0944 
     11 C11        31.2193   -3.9023   -5.5819 C.ar      12 UNK        -0.0787 
     12 C12        30.1477   -4.4972   -6.2609 C.ar      12 UNK        -0.0862 
     13 C13        29.0996   -5.1026   -5.5582 C.ar      12 UNK        -0.0733 
     14 C14        29.1068   -5.0776   -4.1599 C.ar      12 UNK        -0.0832 
     15 C15        28.0085   -5.8716   -6.2952 C.3       12 UNK         0.0240 
     16 S16        26.4838   -4.9021   -6.5286 S.3       12 UNK        -0.2522 
     17 C17        26.5325   -4.4930   -8.3153 C.3       12 UNK        -0.0967 
     18 CA         26.3026   -2.9936   -8.6346 C.3       5 UNK         0.0660 
     19 N          25.0692   -2.4768   -8.0349 N.am      5 UNK        -0.4015 
     20 C          24.5550   -1.2584   -8.2545 C.2       4 UNK         0.4946 
     21 O          25.0266   -0.4448   -9.0484 O.2       4 UNK        -0.5353 
     22 CA         23.3313   -0.8621   -7.4120 C.3       4 UNK         0.0277 
     23 CB         22.0338   -1.3189   -8.0976 C.3       4 UNK        -0.1981 
     24 N          23.3722   -1.3753   -6.0375 N.am      4 UNK        -0.4209 
     25 C          24.3059   -1.0532   -5.1319 C.2       3 UNK         0.4942 
     26 O          25.2685   -0.3181   -5.3654 O.2       3 UNK        -0.5208 
     27 CA         24.1623   -1.6927   -3.7486 C.3       3 UNK         0.0250 
     28 CB         24.8973   -3.0438   -3.6924 C.3       3 UNK        -0.1990 
     29 N          24.7265   -0.7913   -2.7496 N.am      3 UNK        -0.4232 
     30 C          24.2991   -0.6602   -1.4893 C.2       2 UNK         0.4993 
     31 O          23.3651   -1.3097   -1.0143 O.2       2 UNK        -0.5286 
     32 CA         25.0762    0.3333   -0.6030 C.3       2 UNK         0.0209 
     33 CB         24.3848    0.5937    0.7489 C.3       2 UNK        -0.1931 
     34 N          26.4354   -0.1517   -0.3525 N.am      2 UNK        -0.4546 
     35 C          27.4494   -0.0601   -1.2227 C.2       1 UNK         0.5154 
     36 O          27.3619    0.5274   -2.3002 O.2       1 UNK        -0.5181 
     37 C          27.5275   -2.1423   -8.2575 C.2       5 UNK         0.5014 
     38 O          28.3132   -1.7789   -9.1324 O.2       5 UNK        -0.5248 
     39 N          27.6425   -1.8160   -6.9650 N.am      6 UNK        -0.4434 
     40 CA         28.7192   -1.0055   -6.4129 C.3       6 UNK         0.0363 
     41 CB         28.7199   -1.1257   -4.8876 C.3       6 UNK        -0.1936 
     42 C          28.6341    0.4599   -6.8497 C.2       6 UNK         0.5081 
     43 O          29.6705    1.0593   -7.1347 O.2       6 UNK        -0.5248 
     44 N          27.4090    0.9962   -6.9331 N.am      7 UNK        -0.4718 
     45 CA         27.1244    2.3289   -7.4658 C.3       7 UNK         0.0273 
     46 CB         25.6466    2.6774   -7.2299 C.3       7 UNK        -0.1935 
     47 C          27.4923    2.4546   -8.9540 C.2       7 UNK         0.5018 
     48 O          28.1177    3.4442   -9.3349 O.2       7 UNK        -0.5186 
     49 N          27.1361    1.4395   -9.7559 N.am      8 UNK        -0.4240 
     50 CA         27.4835    1.3416  -11.1763 C.3       8 UNK         0.0235 
     51 CB         26.6972    0.1913  -11.8255 C.3       8 UNK        -0.2000 
     52 C          28.9935    1.1702  -11.4135 C.2       8 UNK         0.4941 
     53 O          29.5400    1.8175  -12.3075 O.2       8 UNK        -0.5273 
     54 N          29.6419    0.3175  -10.6073 N.am      9 UNK        -0.4262 
     55 CA         31.0849    0.0632  -10.6549 C.3       9 UNK         0.0264 
     56 CB         31.3938   -1.2199   -9.8654 C.3       9 UNK        -0.1955 
     57 C          31.9449    1.2220  -10.1186 C.2       9 UNK         0.5031 
     58 O          33.1322    1.2727  -10.4430 O.2       9 UNK        -0.5390 
     59 N          31.3506    2.0941   -9.2889 N.am      10 UNK        -0.4204 
     60 CA         31.9942    3.1319   -8.4732 C.3       10 UNK         0.0237 
     61 CB         32.6448    4.2232   -9.3502 C.3       10 UNK        -0.1985 
     62 C          32.9588    2.5035   -7.4483 C.2       10 UNK         0.4970 
     63 O          34.1228    2.8982   -7.3583 O.2       10 UNK        -0.4914 
     64 N          32.4470    1.5006   -6.7232 N.am      11 UNK        -0.4285 
     65 CA         33.1931    0.6602   -5.7731 C.3       11 UNK         0.1007 
     66 C          33.6418    1.3748   -4.4645 C.2       11 UNK         0.5703 
     67 N          33.1035    2.5414   -4.1279 N.am      11 UNK        -0.7361 
     68 O          34.4996    0.8666   -3.7469 O.2       11 UNK        -0.4986 
     69 C69        32.4172   -0.6549   -5.4738 C.3       12 UNK        -0.0947 
     70 S70        33.4680   -2.1413   -5.5258 S.3       12 UNK        -0.2240 
     71 C71        32.3855   -3.3336   -6.3981 C.3       12 UNK         0.0194 
     72 H72        29.9323    1.8031   -0.2705 H         1 UNK         0.0906 
     73 H73        28.3640    2.2193    0.4442 H         1 UNK         0.0906 
     74 H74        29.8573    2.5623    1.3091 H         1 UNK         0.0906 
     75 H75        29.0543   -1.5156    1.1035 H         1 UNK         0.3140 
     76 H76        29.5721   -0.1895   -1.3558 H         1 UNK         0.1085 
     77 H77        28.0921   -2.8008   -0.7459 H         1 UNK         0.0836 
     78 H78        28.5009   -2.2687   -2.3533 H         1 UNK         0.0836 
     79 H79        29.3107   -5.0142   -1.5358 H         1 UNK         0.0731 
     80 H80        31.0407   -5.2083   -1.6503 H         1 UNK         0.0731 
     81 H81        32.0520   -3.4946   -3.6311 H         1 UNK         0.1312 
     82 H82        30.1486   -4.5241   -7.3421 H         1 UNK         0.1406 
     83 H83        28.3029   -5.5550   -3.6158 H         1 UNK         0.1631 
     84 H84        27.7541   -6.7638   -5.7211 H         1 UNK         0.0717 
     85 H85        28.3820   -6.2431   -7.2501 H         1 UNK         0.0717 
     86 H86        27.4714   -4.8289   -8.7592 H         1 UNK         0.0934 
     87 H87        25.7584   -5.0856   -8.8054 H         1 UNK         0.0934 
     88 H88        26.1855   -2.9042   -9.7169 H         1 UNK         0.0739 
     89 H89        24.6189   -3.0778   -7.3606 H         1 UNK         0.3093 
     90 H90        23.3173    0.2281   -7.3532 H         1 UNK         0.0818 
     91 H91        21.1542   -0.9567   -7.5650 H         1 UNK         0.0819 
     92 H92        21.9745   -0.9314   -9.1159 H         1 UNK         0.0819 
     93 H93        21.9668   -2.4058   -8.1586 H         1 UNK         0.0819 
     94 H94        22.6206   -1.9922   -5.7629 H         1 UNK         0.3041 
     95 H95        23.0999   -1.8452   -3.5457 H         1 UNK         0.0784 
     96 H96        24.4866   -3.7455   -4.4191 H         1 UNK         0.0793 
     97 H97        25.9618   -2.9346   -3.9057 H         1 UNK         0.0793 
     98 H98        24.8013   -3.5062   -2.7099 H         1 UNK         0.0793 
     99 H99        25.4971   -0.2145   -3.0759 H         1 UNK         0.3024 
    100 H100       25.1243    1.2836   -1.1404 H         1 UNK         0.1171 
    101 H101       24.9233    1.3417    1.3312 H         1 UNK         0.0786 
    102 H102       23.3706    0.9677    0.6025 H         1 UNK         0.0786 
    103 H103       24.3148   -0.3131    1.3510 H         1 UNK         0.0786 
    104 H104       26.5871   -0.6580    0.5085 H         1 UNK         0.2977 
    105 H105       26.9366   -2.1400   -6.3206 H         1 UNK         0.3127 
    106 H106       29.6524   -1.4178   -6.7943 H         1 UNK         0.0770 
    107 H107       27.7565   -0.8439   -4.4651 H         1 UNK         0.0814 
    108 H108       28.9328   -2.1489   -4.5866 H         1 UNK         0.0814 
    109 H109       29.4773   -0.4853   -4.4350 H         1 UNK         0.0814 
    110 H110       26.6176    0.4482   -6.6071 H         1 UNK         0.2983 
    111 H111       27.7365    3.0436   -6.9112 H         1 UNK         0.0947 
    112 H112       25.3902    2.6218   -6.1716 H         1 UNK         0.0806 
    113 H113       24.9810    2.0043   -7.7701 H         1 UNK         0.0806 
    114 H114       25.4274    3.6917   -7.5657 H         1 UNK         0.0806 
    115 H115       26.5703    0.6864   -9.3713 H         1 UNK         0.3000 
    116 H116       27.1784    2.2736  -11.6569 H         1 UNK         0.0850 
    117 H117       26.9316    0.1069  -12.8875 H         1 UNK         0.0810 
    118 H118       25.6221    0.3511  -11.7419 H         1 UNK         0.0810 
    119 H119       26.9276   -0.7684  -11.3613 H         1 UNK         0.0810 
    120 H120       29.1034   -0.2431   -9.9498 H         1 UNK         0.3040 
    121 H121       31.3676   -0.0997  -11.6971 H         1 UNK         0.0766 
    122 H122       31.1094   -1.1200   -8.8176 H         1 UNK         0.0812 
    123 H123       32.4588   -1.4544   -9.8943 H         1 UNK         0.0812 
    124 H124       30.8618   -2.0779  -10.2767 H         1 UNK         0.0812 
    125 H125       30.3831    1.9094   -9.0513 H         1 UNK         0.3205 
    126 H126       31.1965    3.6044   -7.8979 H         1 UNK         0.0754 
    127 H127       33.0133    5.0455   -8.7358 H         1 UNK         0.0769 
    128 H128       31.9274    4.6415  -10.0563 H         1 UNK         0.0769 
    129 H129       33.4922    3.8408   -9.9197 H         1 UNK         0.0769 
    130 H130       31.4619    1.2753   -6.8484 H         1 UNK         0.2981 
    131 H131       34.1184    0.3988   -6.2904 H         1 UNK         0.0541 
    132 H132       32.4030    2.9678   -4.7122 H         1 UNK         0.3459 
    133 H133       33.4061    2.9993   -3.2829 H         1 UNK         0.3459 
    134 H134       31.6405   -0.7954   -6.2203 H         1 UNK         0.0612 
    135 H135       31.8976   -0.6205   -4.5145 H         1 UNK         0.0612 
    136 H136       33.0057   -4.1710   -6.7198 H         1 UNK         0.0624 
    137 H137       32.0102   -2.8671   -7.3095 H         1 UNK         0.0624 
@<TRIPOS>BOND
     1    1    2 1    
     2    1   72 1    
     3    1   73 1    
     4    1   74 1    
     5    2    3 2    
     6    2    4 am   BACKBONE|DICT|INTERRES
     7    4    5 1    
     8    4   75 1    
     9    5    6 1    
    10    5   35 1    
    11    5   76 1    
    12    6    7 1    
    13    6   77 1    
    14    6   78 1    
    15    7    8 1    
    16    8    9 1    
    17    8   79 1    
    18    8   80 1    
    19    9   10 ar   
    20    9   14 ar   
    21   10   11 ar   
    22   10   81 1    
    23   11   12 ar   
    24   11   71 1    
    25   12   13 ar   
    26   12   82 1    
    27   13   14 ar   
    28   13   15 1    
    29   14   83 1    
    30   15   16 1    
    31   15   84 1    
    32   15   85 1    
    33   16   17 1    
    34   17   18 1    
    35   17   86 1    
    36   17   87 1    
    37   18   19 1    
    38   18   37 1    
    39   18   88 1    
    40   19   20 am   BACKBONE|DICT|INTERRES
    41   19   89 1    
    42   20   21 2    
    43   20   22 1    
    44   22   23 1    
    45   22   24 1    
    46   22   90 1    
    47   23   91 1    
    48   23   92 1    
    49   23   93 1    
    50   24   25 am   BACKBONE|DICT|INTERRES
    51   24   94 1    
    52   25   26 2    
    53   25   27 1    
    54   27   28 1    
    55   27   29 1    
    56   27   95 1    
    57   28   96 1    
    58   28   97 1    
    59   28   98 1    
    60   29   30 am   BACKBONE|DICT|INTERRES
    61   29   99 1    
    62   30   31 2    
    63   30   32 1    
    64   32   33 1    
    65   32   34 1    
    66   32  100 1    
    67   33  101 1    
    68   33  102 1    
    69   33  103 1    
    70   34   35 am   BACKBONE|DICT|INTERRES
    71   34  104 1    
    72   35   36 2    
    73   37   38 2    
    74   37   39 am   BACKBONE|DICT|INTERRES
    75   39   40 1    
    76   39  105 1    
    77   40   41 1    
    78   40   42 1    
    79   40  106 1    
    80   41  107 1    
    81   41  108 1    
    82   41  109 1    
    83   42   43 2    
    84   42   44 am   BACKBONE|DICT|INTERRES
    85   44   45 1    
    86   44  110 1    
    87   45   46 1    
    88   45   47 1    
    89   45  111 1    
    90   46  112 1    
    91   46  113 1    
    92   46  114 1    
    93   47   48 2    
    94   47   49 am   BACKBONE|DICT|INTERRES
    95   49   50 1    
    96   49  115 1    
    97   50   51 1    
    98   50   52 1    
    99   50  116 1    
   100   51  117 1    
   101   51  118 1    
   102   51  119 1    
   103   52   53 2    
   104   52   54 am   BACKBONE|DICT|INTERRES
   105   54   55 1    
   106   54  120 1    
   107   55   56 1    
   108   55   57 1    
   109   55  121 1    
   110   56  122 1    
   111   56  123 1    
   112   56  124 1    
   113   57   58 2    
   114   57   59 am   BACKBONE|DICT|INTERRES
   115   59   60 1    
   116   59  125 1    
   117   60   61 1    
   118   60   62 1    
   119   60  126 1    
   120   61  127 1    
   121   61  128 1    
   122   61  129 1    
   123   62   63 2    
   124   62   64 am   BACKBONE|DICT|INTERRES
   125   64   65 1    
   126   64  130 1    
   127   65   66 1    
   128   65   69 1    
   129   65  131 1    
   130   66   67 am   BACKBONE|DICT|INTERRES
   131   66   68 2    
   132   67  132 1    
   133   67  133 1    
   134   69   70 1    
   135   69  134 1    
   136   69  135 1    
   137   70   71 1    
   138   71  136 1    
   139   71  137 1    
@<TRIPOS>SUBSTRUCTURE
     1 UNK         1 GROUP             0       ****    0 ROOT    
