@<TRIPOS>MOLECULE
3R137
137   139    1
SMALL
USER_CHARGES


@<TRIPOS>ATOM
      1 CA         29.8554    1.2841    1.5921 C.3       0 UNK        -0.2020 
      2 C          29.5149   -0.1944    1.7583 C.2       0 UNK         0.4855 
      3 O          29.3306   -0.6475    2.8856 O.2       0 UNK        -0.5197 
      4 N          29.4236   -0.9889    0.6825 N.am      1 UNK        -0.4892 
      5 CA         29.5601   -0.6000   -0.7286 C.3       1 UNK         0.0835 
      6 C6         29.8450   -1.8351   -1.6196 C.3       12 UNK        -0.0855 
      7 S7         28.5153   -3.0943   -1.6125 S.3       12 UNK        -0.2931 
      8 C8         29.4244   -4.5958   -2.0950 C.3       12 UNK         0.0378 
      9 C9         29.9304   -4.5101   -3.5273 C.ar      12 UNK        -0.0802 
     10 C10        31.2362   -4.0838   -3.7833 C.ar      12 UNK        -0.0944 
     11 C11        31.7074   -3.9821   -5.0942 C.ar      12 UNK        -0.0787 
     12 C12        30.8594   -4.3211   -6.1532 C.ar      12 UNK        -0.0862 
     13 C13        29.5539   -4.7694   -5.9161 C.ar      12 UNK        -0.0733 
     14 C14        29.0979   -4.8638   -4.5946 C.ar      12 UNK        -0.0832 
     15 C15        28.6926   -5.1835   -7.1100 C.3       12 UNK         0.0240 
     16 S16        26.8894   -4.9518   -6.8928 S.3       12 UNK        -0.2522 
     17 C17        26.4073   -4.4621   -8.5922 C.3       12 UNK        -0.0967 
     18 CA         26.1349   -2.9455   -8.7811 C.3       5 UNK         0.0660 
     19 N          24.9211   -2.5097   -8.0869 N.am      5 UNK        -0.4015 
     20 C          24.3178   -1.3289   -8.2886 C.2       4 UNK         0.4946 
     21 O          24.6820   -0.5057   -9.1299 O.2       4 UNK        -0.5353 
     22 CA         23.1383   -0.9925   -7.3595 C.3       4 UNK         0.0277 
     23 CB         21.8332   -1.6027   -7.8950 C.3       4 UNK        -0.1981 
     24 N          23.3548   -1.4196   -5.9707 N.am      4 UNK        -0.4209 
     25 C          24.3289   -0.9428   -5.1845 C.2       3 UNK         0.4942 
     26 O          25.1546   -0.1044   -5.5525 O.2       3 UNK        -0.5208 
     27 CA         24.4302   -1.5203   -3.7703 C.3       3 UNK         0.0250 
     28 CB         25.1679   -2.8733   -3.7786 C.3       3 UNK        -0.1990 
     29 N          25.1593   -0.5616   -2.9453 N.am      3 UNK        -0.4232 
     30 C          25.0602   -0.4343   -1.6201 C.2       2 UNK         0.4993 
     31 O          24.3597   -1.1581   -0.9091 O.2       2 UNK        -0.5286 
     32 CA         25.9224    0.6610   -0.9790 C.3       2 UNK         0.0209 
     33 CB         25.2599    1.2645    0.2731 C.3       2 UNK        -0.1931 
     34 N          27.1958    0.0611   -0.5971 N.am      2 UNK        -0.4546 
     35 C          28.3544    0.2150   -1.2499 C.2       1 UNK         0.5154 
     36 O          28.5011    0.9727   -2.2083 O.2       1 UNK        -0.5181 
     37 C          27.3482   -2.0718   -8.3994 C.2       5 UNK         0.5014 
     38 O          28.1358   -1.7035   -9.2697 O.2       5 UNK        -0.5248 
     39 N          27.4563   -1.7394   -7.1055 N.am      6 UNK        -0.4434 
     40 CA         28.5227   -0.9242   -6.5366 C.3       6 UNK         0.0363 
     41 CB         28.4888   -1.0207   -5.0073 C.3       6 UNK        -0.1936 
     42 C          28.4443    0.5340   -6.9983 C.2       6 UNK         0.5081 
     43 O          29.4830    1.1256   -7.2824 O.2       6 UNK        -0.5248 
     44 N          27.2255    1.0760   -7.1132 N.am      7 UNK        -0.4718 
     45 CA         26.9558    2.3998   -7.6764 C.3       7 UNK         0.0273 
     46 CB         25.4665    2.7374   -7.5055 C.3       7 UNK        -0.1935 
     47 C          27.3801    2.5124   -9.1509 C.2       7 UNK         0.5018 
     48 O          27.9452    3.5357   -9.5371 O.2       7 UNK        -0.5186 
     49 N          27.1374    1.4505   -9.9336 N.am      8 UNK        -0.4240 
     50 CA         27.5783    1.3353  -11.3256 C.3       8 UNK         0.0235 
     51 CB         26.8281    0.1823  -12.0124 C.3       8 UNK        -0.2000 
     52 C          29.1022    1.1551  -11.4512 C.2       8 UNK         0.4941 
     53 O          29.7163    1.7910  -12.3083 O.2       8 UNK        -0.5273 
     54 N          29.6854    0.3026  -10.5965 N.am      9 UNK        -0.4262 
     55 CA         31.1184   -0.0108  -10.5682 C.3       9 UNK         0.0264 
     56 CB         31.3231   -1.3227   -9.7904 C.3       9 UNK        -0.1955 
     57 C          32.0071    1.0966   -9.9695 C.2       9 UNK         0.5031 
     58 O          33.2249    1.0298  -10.1428 O.2       9 UNK        -0.5390 
     59 N          31.4029    2.0564   -9.2527 N.am      10 UNK        -0.4204 
     60 CA         32.0409    3.0777   -8.4085 C.3       10 UNK         0.0237 
     61 CB         32.9301    4.0330   -9.2335 C.3       10 UNK        -0.1985 
     62 C          32.7640    2.4534   -7.1955 C.2       10 UNK         0.4970 
     63 O          33.8446    2.9038   -6.8108 O.2       10 UNK        -0.4914 
     64 N          32.1335    1.4229   -6.6238 N.am      11 UNK        -0.4285 
     65 CA         32.5594    0.6684   -5.4391 C.3       11 UNK         0.1007 
     66 C          31.7834    1.0807   -4.1511 C.2       11 UNK         0.5703 
     67 N          30.7268    1.8816   -4.2401 N.am      11 UNK        -0.7361 
     68 O          32.1453    0.6754   -3.0498 O.2       11 UNK        -0.4986 
     69 C69        32.4363   -0.8534   -5.7275 C.3       12 UNK        -0.0947 
     70 S70        33.5245   -1.8898   -4.7018 S.3       12 UNK        -0.2240 
     71 C71        33.1436   -3.5446   -5.3645 C.3       12 UNK         0.0194 
     72 H72        30.7691    1.4187    1.0146 H         1 UNK         0.0906 
     73 H73        29.0432    1.8195    1.1019 H         1 UNK         0.0906 
     74 H74        30.0142    1.7481    2.5652 H         1 UNK         0.0906 
     75 H75        29.2033   -1.9650    0.8248 H         1 UNK         0.3140 
     76 H76        30.4304    0.0527   -0.8179 H         1 UNK         0.1085 
     77 H77        30.0386   -1.5276   -2.6475 H         1 UNK         0.0836 
     78 H78        30.7709   -2.3045   -1.2840 H         1 UNK         0.0836 
     79 H79        28.7633   -5.4572   -1.9895 H         1 UNK         0.0731 
     80 H80        30.2514   -4.7618   -1.4028 H         1 UNK         0.0731 
     81 H81        31.8891   -3.8233   -2.9616 H         1 UNK         0.1312 
     82 H82        31.2253   -4.2550   -7.1689 H         1 UNK         0.1406 
     83 H83        28.0947   -5.2105   -4.3888 H         1 UNK         0.1631 
     84 H84        28.8842   -6.2333   -7.3349 H         1 UNK         0.0717 
     85 H85        29.0202   -4.6182   -7.9836 H         1 UNK         0.0717 
     86 H86        27.1672   -4.7931   -9.3023 H         1 UNK         0.0934 
     87 H87        25.5134   -5.0275   -8.8606 H         1 UNK         0.0934 
     88 H88        25.9601   -2.7834   -9.8473 H         1 UNK         0.0739 
     89 H89        24.5570   -3.1307   -7.3795 H         1 UNK         0.3093 
     90 H90        23.0287    0.0943   -7.3568 H         1 UNK         0.0818 
     91 H91        20.9750   -1.2875   -7.3011 H         1 UNK         0.0819 
     92 H92        21.6473   -1.2842   -8.9218 H         1 UNK         0.0819 
     93 H93        21.8620   -2.6929   -7.8925 H         1 UNK         0.0819 
     94 H94        22.7138   -2.1060   -5.5980 H         1 UNK         0.3041 
     95 H95        23.4208   -1.6485   -3.3736 H         1 UNK         0.0784 
     96 H96        24.6502   -3.6050   -4.3996 H         1 UNK         0.0793 
     97 H97        26.1849   -2.7802   -4.1606 H         1 UNK         0.0793 
     98 H98        25.2337   -3.2933   -2.7746 H         1 UNK         0.0793 
     99 H99        25.7277    0.0860   -3.4783 H         1 UNK         0.3024 
    100 H100       26.0698    1.4648   -1.7044 H         1 UNK         0.1171 
    101 H101       25.8688    2.0650    0.6935 H         1 UNK         0.0786 
    102 H102       24.2857    1.6906    0.0304 H         1 UNK         0.0786 
    103 H103       25.1056    0.5194    1.0544 H         1 UNK         0.0786 
    104 H104       27.1634   -0.6200    0.1481 H         1 UNK         0.2977 
    105 H105       26.7527   -2.0744   -6.4660 H         1 UNK         0.3127 
    106 H106       29.4710   -1.3360   -6.8846 H         1 UNK         0.0770 
    107 H107       27.5592   -0.6373   -4.5905 H         1 UNK         0.0814 
    108 H108       28.6117   -2.0489   -4.6703 H         1 UNK         0.0814 
    109 H109       29.2951   -0.4386   -4.5666 H         1 UNK         0.0814 
    110 H110       26.4254    0.5472   -6.7728 H         1 UNK         0.2983 
    111 H111       27.5404    3.1265   -7.1080 H         1 UNK         0.0947 
    112 H112       25.1753    2.7207   -6.4550 H         1 UNK         0.0806 
    113 H113       24.8285    2.0319   -8.0387 H         1 UNK         0.0806 
    114 H114       25.2452    3.7342   -7.8891 H         1 UNK         0.0806 
    115 H115       26.6398    0.6615   -9.5383 H         1 UNK         0.3000 
    116 H116       27.3124    2.2617  -11.8397 H         1 UNK         0.0850 
    117 H117       27.1138    0.1022  -13.0621 H         1 UNK         0.0810 
    118 H118       25.7494    0.3374  -11.9800 H         1 UNK         0.0810 
    119 H119       27.0396   -0.7786  -11.5428 H         1 UNK         0.0810 
    120 H120       29.0918   -0.2444   -9.9756 H         1 UNK         0.3040 
    121 H121       31.4505   -0.1701  -11.5962 H         1 UNK         0.0766 
    122 H122       30.9992   -1.2285   -8.7538 H         1 UNK         0.0812 
    123 H123       32.3741   -1.6144   -9.7784 H         1 UNK         0.0812 
    124 H124       30.7651   -2.1434  -10.2415 H         1 UNK         0.0812 
    125 H125       30.4019    1.9637   -9.1268 H         1 UNK         0.3205 
    126 H126       31.2239    3.6714   -7.9954 H         1 UNK         0.0754 
    127 H127       33.2646    4.8743   -8.6254 H         1 UNK         0.0769 
    128 H128       32.3866    4.4441  -10.0843 H         1 UNK         0.0769 
    129 H129       33.8227    3.5354   -9.6133 H         1 UNK         0.0769 
    130 H130       31.2058    1.1891   -6.9752 H         1 UNK         0.2981 
    131 H131       33.6100    0.8946   -5.2491 H         1 UNK         0.0541 
    132 H132       30.4077    2.2153   -5.1350 H         1 UNK         0.3459 
    133 H133       30.1962    2.0845   -3.4053 H         1 UNK         0.3459 
    134 H134       32.7013   -1.0594   -6.7664 H         1 UNK         0.0612 
    135 H135       31.4074   -1.1923   -5.6073 H         1 UNK         0.0612 
    136 H136       33.8214   -4.2667   -4.9077 H         1 UNK         0.0624 
    137 H137       33.3608   -3.5542   -6.4338 H         1 UNK         0.0624 
@<TRIPOS>BOND
     1    1    2 1    
     2    1   72 1    
     3    1   73 1    
     4    1   74 1    
     5    2    3 2    
     6    2    4 am   BACKBONE|DICT|INTERRES
     7    4    5 1    
     8    4   75 1    
     9    5    6 1    
    10    5   35 1    
    11    5   76 1    
    12    6    7 1    
    13    6   77 1    
    14    6   78 1    
    15    7    8 1    
    16    8    9 1    
    17    8   79 1    
    18    8   80 1    
    19    9   10 ar   
    20    9   14 ar   
    21   10   11 ar   
    22   10   81 1    
    23   11   12 ar   
    24   11   71 1    
    25   12   13 ar   
    26   12   82 1    
    27   13   14 ar   
    28   13   15 1    
    29   14   83 1    
    30   15   16 1    
    31   15   84 1    
    32   15   85 1    
    33   16   17 1    
    34   17   18 1    
    35   17   86 1    
    36   17   87 1    
    37   18   19 1    
    38   18   37 1    
    39   18   88 1    
    40   19   20 am   BACKBONE|DICT|INTERRES
    41   19   89 1    
    42   20   21 2    
    43   20   22 1    
    44   22   23 1    
    45   22   24 1    
    46   22   90 1    
    47   23   91 1    
    48   23   92 1    
    49   23   93 1    
    50   24   25 am   BACKBONE|DICT|INTERRES
    51   24   94 1    
    52   25   26 2    
    53   25   27 1    
    54   27   28 1    
    55   27   29 1    
    56   27   95 1    
    57   28   96 1    
    58   28   97 1    
    59   28   98 1    
    60   29   30 am   BACKBONE|DICT|INTERRES
    61   29   99 1    
    62   30   31 2    
    63   30   32 1    
    64   32   33 1    
    65   32   34 1    
    66   32  100 1    
    67   33  101 1    
    68   33  102 1    
    69   33  103 1    
    70   34   35 am   BACKBONE|DICT|INTERRES
    71   34  104 1    
    72   35   36 2    
    73   37   38 2    
    74   37   39 am   BACKBONE|DICT|INTERRES
    75   39   40 1    
    76   39  105 1    
    77   40   41 1    
    78   40   42 1    
    79   40  106 1    
    80   41  107 1    
    81   41  108 1    
    82   41  109 1    
    83   42   43 2    
    84   42   44 am   BACKBONE|DICT|INTERRES
    85   44   45 1    
    86   44  110 1    
    87   45   46 1    
    88   45   47 1    
    89   45  111 1    
    90   46  112 1    
    91   46  113 1    
    92   46  114 1    
    93   47   48 2    
    94   47   49 am   BACKBONE|DICT|INTERRES
    95   49   50 1    
    96   49  115 1    
    97   50   51 1    
    98   50   52 1    
    99   50  116 1    
   100   51  117 1    
   101   51  118 1    
   102   51  119 1    
   103   52   53 2    
   104   52   54 am   BACKBONE|DICT|INTERRES
   105   54   55 1    
   106   54  120 1    
   107   55   56 1    
   108   55   57 1    
   109   55  121 1    
   110   56  122 1    
   111   56  123 1    
   112   56  124 1    
   113   57   58 2    
   114   57   59 am   BACKBONE|DICT|INTERRES
   115   59   60 1    
   116   59  125 1    
   117   60   61 1    
   118   60   62 1    
   119   60  126 1    
   120   61  127 1    
   121   61  128 1    
   122   61  129 1    
   123   62   63 2    
   124   62   64 am   BACKBONE|DICT|INTERRES
   125   64   65 1    
   126   64  130 1    
   127   65   66 1    
   128   65   69 1    
   129   65  131 1    
   130   66   67 am   BACKBONE|DICT|INTERRES
   131   66   68 2    
   132   67  132 1    
   133   67  133 1    
   134   69   70 1    
   135   69  134 1    
   136   69  135 1    
   137   70   71 1    
   138   71  136 1    
   139   71  137 1    
@<TRIPOS>SUBSTRUCTURE
     1 UNK         1 GROUP             0       ****    0 ROOT    
