@<TRIPOS>MOLECULE
3R137
137   139    1
SMALL
USER_CHARGES


@<TRIPOS>ATOM
      1 CA         24.2182   -5.0371    0.3071 C.3       0 UNK        -0.2020 
      2 C          25.3538   -4.0571    0.5602 C.2       0 UNK         0.4855 
      3 O          25.3285   -3.3355    1.5573 O.2       0 UNK        -0.5197 
      4 N          26.3496   -4.0244   -0.3361 N.am      1 UNK        -0.4892 
      5 CA         27.5062   -3.1178   -0.2701 C.3       1 UNK         0.0835 
      6 C6         28.6708   -3.6391   -1.1520 C.3       12 UNK        -0.0855 
      7 S7         30.3158   -3.2888   -0.4415 S.3       12 UNK        -0.2931 
      8 C8         31.3943   -4.3160   -1.4952 C.3       12 UNK         0.0378 
      9 C9         31.4119   -3.8037   -2.9270 C.ar      12 UNK        -0.0802 
     10 C10        32.2929   -2.7856   -3.3023 C.ar      12 UNK        -0.0944 
     11 C11        32.2567   -2.2591   -4.5970 C.ar      12 UNK        -0.0787 
     12 C12        31.3232   -2.7497   -5.5159 C.ar      12 UNK        -0.0862 
     13 C13        30.4335   -3.7644   -5.1471 C.ar      12 UNK        -0.0733 
     14 C14        30.5090   -4.3122   -3.8640 C.ar      12 UNK        -0.0832 
     15 C15        29.3363   -4.2126   -6.1045 C.3       12 UNK         0.0240 
     16 S16        27.6629   -3.9694   -5.4056 S.3       12 UNK        -0.2522 
     17 C17        27.6792   -2.1949   -4.9751 C.3       12 UNK        -0.0967 
     18 CA         27.1085   -1.3183   -6.1122 C.3       5 UNK         0.0660 
     19 N          25.6658   -1.5175   -6.2802 N.am      5 UNK        -0.4015 
     20 C          24.9937   -1.2625   -7.4110 C.2       4 UNK         0.4946 
     21 O          25.5205   -0.8419   -8.4384 O.2       4 UNK        -0.5353 
     22 CA         23.4648   -1.4373   -7.3784 C.3       4 UNK         0.0277 
     23 CB         23.0818   -2.8914   -7.6946 C.3       4 UNK        -0.1981 
     24 N          22.8615   -1.0340   -6.1053 N.am      4 UNK        -0.4209 
     25 C          22.9866    0.1801   -5.5525 C.2       3 UNK         0.4942 
     26 O          23.5865    1.1115   -6.0900 O.2       3 UNK        -0.5208 
     27 CA         22.4273    0.3777   -4.1334 C.3       3 UNK         0.0250 
     28 CB         21.3745   -0.6762   -3.7197 C.3       3 UNK        -0.1990 
     29 N          23.5078    0.4461   -3.1394 N.am      3 UNK        -0.4232 
     30 C          24.4442   -0.4850   -2.8972 C.2       2 UNK         0.4993 
     31 O          24.5407   -1.5409   -3.5311 O.2       2 UNK        -0.5286 
     32 CA         25.4430   -0.1983   -1.7635 C.3       2 UNK         0.0209 
     33 CB         24.7925    0.5148   -0.5564 C.3       2 UNK        -0.1931 
     34 N          26.0262   -1.4717   -1.3482 N.am      2 UNK        -0.4546 
     35 C          27.1316   -1.6551   -0.6151 C.2       1 UNK         0.5154 
     36 O          27.8328   -0.7299   -0.2033 O.2       1 UNK        -0.5181 
     37 C          27.4886    0.1614   -5.8954 C.2       5 UNK         0.5014 
     38 O          28.6621    0.4949   -6.0569 O.2       5 UNK        -0.5248 
     39 N          26.5268    1.0256   -5.5357 N.am      6 UNK        -0.4434 
     40 CA         26.7336    2.4749   -5.4799 C.3       6 UNK         0.0363 
     41 CB         25.7662    3.1159   -4.4709 C.3       6 UNK        -0.1936 
     42 C          26.5785    3.0953   -6.8773 C.2       6 UNK         0.5081 
     43 O          27.3288    4.0091   -7.2182 O.2       6 UNK        -0.5248 
     44 N          25.6269    2.5739   -7.6664 N.am      7 UNK        -0.4718 
     45 CA         25.4212    2.9257   -9.0716 C.3       7 UNK         0.0273 
     46 CB         24.0695    2.3697   -9.5507 C.3       7 UNK        -0.1935 
     47 C          26.5777    2.4352   -9.9588 C.2       7 UNK         0.5018 
     48 O          27.2126    3.2466  -10.6340 O.2       7 UNK        -0.5186 
     49 N          26.8551    1.1255   -9.9186 N.am      8 UNK        -0.4240 
     50 CA         27.9681    0.4834  -10.6149 C.3       8 UNK         0.0235 
     51 CB         27.5218   -0.9007  -11.1227 C.3       8 UNK        -0.2000 
     52 C          29.1765    0.4028   -9.6712 C.2       8 UNK         0.4941 
     53 O          29.5609   -0.6877   -9.2407 O.2       8 UNK        -0.5273 
     54 N          29.7582    1.5682   -9.3592 N.am      9 UNK        -0.4262 
     55 CA         30.9293    1.7350   -8.4933 C.3       9 UNK         0.0264 
     56 CB         30.9995    3.1999   -8.0256 C.3       9 UNK        -0.1955 
     57 C          32.2305    1.2666   -9.1756 C.2       9 UNK         0.5031 
     58 O          33.1422    2.0665   -9.3985 O.2       9 UNK        -0.5390 
     59 N          32.2906   -0.0333   -9.4933 N.am      10 UNK        -0.4204 
     60 CA         33.3804   -0.7185  -10.1996 C.3       10 UNK         0.0237 
     61 CB         32.9823   -2.1878  -10.4149 C.3       10 UNK        -0.1985 
     62 C          34.7572   -0.6312   -9.5145 C.2       10 UNK         0.4970 
     63 O          35.7745   -0.8011  -10.1879 O.2       10 UNK        -0.4914 
     64 N          34.7655   -0.3594   -8.2047 N.am      11 UNK        -0.4285 
     65 CA         35.9655   -0.0921   -7.4002 C.3       11 UNK         0.1007 
     66 C          36.6715    1.2553   -7.7363 C.2       11 UNK         0.5703 
     67 N          36.0347    2.1894   -8.4360 N.am      11 UNK        -0.7361 
     68 O          37.8230    1.4533   -7.3559 O.2       11 UNK        -0.4986 
     69 C69        35.6710   -0.1849   -5.8793 C.3       12 UNK        -0.0947 
     70 S70        34.8527   -1.7428   -5.3941 S.3       12 UNK        -0.2240 
     71 C71        33.1925   -1.1255   -4.9825 C.3       12 UNK         0.0194 
     72 H72        23.2738   -4.5009    0.2164 H         1 UNK         0.0906 
     73 H73        24.3700   -5.6127   -0.6058 H         1 UNK         0.0906 
     74 H74        24.1342   -5.7366    1.1384 H         1 UNK         0.0906 
     75 H75        26.3187   -4.6458   -1.1325 H         1 UNK         0.3140 
     76 H76        27.8391   -3.1128    0.7707 H         1 UNK         0.1085 
     77 H77        28.6039   -4.7229   -1.2613 H         1 UNK         0.0836 
     78 H78        28.6127   -3.2344   -2.1641 H         1 UNK         0.0836 
     79 H79        32.4056   -4.3050   -1.0858 H         1 UNK         0.0731 
     80 H80        31.0626   -5.3550   -1.4610 H         1 UNK         0.0731 
     81 H81        32.9919   -2.3863   -2.5799 H         1 UNK         0.1312 
     82 H82        31.2667   -2.3180   -6.5062 H         1 UNK         0.1406 
     83 H83        29.8135   -5.0886   -3.5752 H         1 UNK         0.1631 
     84 H84        29.4745   -5.2686   -6.3399 H         1 UNK         0.0717 
     85 H85        29.4013   -3.6723   -7.0505 H         1 UNK         0.0717 
     86 H86        27.1024   -2.0593   -4.0598 H         1 UNK         0.0934 
     87 H87        28.6941   -1.8908   -4.7169 H         1 UNK         0.0934 
     88 H88        27.6017   -1.6153   -7.0413 H         1 UNK         0.0739 
     89 H89        25.1551   -1.8148   -5.4541 H         1 UNK         0.3093 
     90 H90        23.0457   -0.7955   -8.1562 H         1 UNK         0.0818 
     91 H91        22.0006   -3.0112   -7.7665 H         1 UNK         0.0819 
     92 H92        23.5049   -3.2062   -8.6497 H         1 UNK         0.0819 
     93 H93        23.4477   -3.5814   -6.9330 H         1 UNK         0.0819 
     94 H94        22.3890   -1.7514   -5.5744 H         1 UNK         0.3041 
     95 H95        21.9367    1.3523   -4.1343 H         1 UNK         0.0784 
     96 H96        20.5599   -0.7258   -4.4438 H         1 UNK         0.0793 
     97 H97        21.7974   -1.6769   -3.6239 H         1 UNK         0.0793 
     98 H98        20.9285   -0.4203   -2.7585 H         1 UNK         0.0793 
     99 H99        23.5239    1.2882   -2.5814 H         1 UNK         0.3024 
    100 H100       26.2370    0.4296   -2.1739 H         1 UNK         0.1171 
    101 H101       23.9442   -0.0497   -0.1668 H         1 UNK         0.0786 
    102 H102       24.4370    1.5113   -0.8199 H         1 UNK         0.0786 
    103 H103       25.5013    0.6475    0.2609 H         1 UNK         0.0786 
    104 H104       25.5344   -2.2833   -1.7013 H         1 UNK         0.2977 
    105 H105       25.5676    0.7060   -5.4858 H         1 UNK         0.3127 
    106 H106       27.7496    2.6808   -5.1351 H         1 UNK         0.0770 
    107 H107       25.8859    2.6856   -3.4771 H         1 UNK         0.0814 
    108 H108       24.7238    3.0012   -4.7661 H         1 UNK         0.0814 
    109 H109       25.9578    4.1861   -4.3834 H         1 UNK         0.0814 
    110 H110       25.0019    1.8782   -7.2721 H         1 UNK         0.2983 
    111 H111       25.3848    4.0149   -9.1460 H         1 UNK         0.0947 
    112 H112       23.8899    2.6278  -10.5952 H         1 UNK         0.0806 
    113 H113       23.2450    2.7816   -8.9683 H         1 UNK         0.0806 
    114 H114       24.0220    1.2834   -9.4697 H         1 UNK         0.0806 
    115 H115       26.3038    0.5148   -9.3152 H         1 UNK         0.3000 
    116 H116       28.2608    1.0749  -11.4852 H         1 UNK         0.0850 
    117 H117       28.3227   -1.3857  -11.6820 H         1 UNK         0.0810 
    118 H118       26.6621   -0.8205  -11.7879 H         1 UNK         0.0810 
    119 H119       27.2492   -1.5672  -10.3037 H         1 UNK         0.0810 
    120 H120       29.3687    2.4127   -9.7573 H         1 UNK         0.3040 
    121 H121       30.7914    1.1131   -7.6063 H         1 UNK         0.0766 
    122 H122       31.8450    3.3562   -7.3543 H         1 UNK         0.0812 
    123 H123       30.0990    3.4831   -7.4799 H         1 UNK         0.0812 
    124 H124       31.1155    3.8878   -8.8640 H         1 UNK         0.0812 
    125 H125       31.4474   -0.5762   -9.3150 H         1 UNK         0.3205 
    126 H126       33.4803   -0.2421  -11.1768 H         1 UNK         0.0754 
    127 H127       33.7515   -2.7256  -10.9712 H         1 UNK         0.0769 
    128 H128       32.0563   -2.2692  -10.9850 H         1 UNK         0.0769 
    129 H129       32.8397   -2.7089   -9.4672 H         1 UNK         0.0769 
    130 H130       33.8819   -0.2417   -7.7366 H         1 UNK         0.2981 
    131 H131       36.6861   -0.8766   -7.6392 H         1 UNK         0.0541 
    132 H132       35.0818    2.0490   -8.7544 H         1 UNK         0.3459 
    133 H133       36.5088    3.0530   -8.6460 H         1 UNK         0.3459 
    134 H134       35.0614    0.6615   -5.5569 H         1 UNK         0.0612 
    135 H135       36.6012   -0.1165   -5.3124 H         1 UNK         0.0612 
    136 H136       33.2662   -0.4147   -4.1578 H         1 UNK         0.0624 
    137 H137       32.7876   -0.5726   -5.8313 H         1 UNK         0.0624 
@<TRIPOS>BOND
     1    1    2 1    
     2    1   72 1    
     3    1   73 1    
     4    1   74 1    
     5    2    3 2    
     6    2    4 am   BACKBONE|DICT|INTERRES
     7    4    5 1    
     8    4   75 1    
     9    5    6 1    
    10    5   35 1    
    11    5   76 1    
    12    6    7 1    
    13    6   77 1    
    14    6   78 1    
    15    7    8 1    
    16    8    9 1    
    17    8   79 1    
    18    8   80 1    
    19    9   10 ar   
    20    9   14 ar   
    21   10   11 ar   
    22   10   81 1    
    23   11   12 ar   
    24   11   71 1    
    25   12   13 ar   
    26   12   82 1    
    27   13   14 ar   
    28   13   15 1    
    29   14   83 1    
    30   15   16 1    
    31   15   84 1    
    32   15   85 1    
    33   16   17 1    
    34   17   18 1    
    35   17   86 1    
    36   17   87 1    
    37   18   19 1    
    38   18   37 1    
    39   18   88 1    
    40   19   20 am   BACKBONE|DICT|INTERRES
    41   19   89 1    
    42   20   21 2    
    43   20   22 1    
    44   22   23 1    
    45   22   24 1    
    46   22   90 1    
    47   23   91 1    
    48   23   92 1    
    49   23   93 1    
    50   24   25 am   BACKBONE|DICT|INTERRES
    51   24   94 1    
    52   25   26 2    
    53   25   27 1    
    54   27   28 1    
    55   27   29 1    
    56   27   95 1    
    57   28   96 1    
    58   28   97 1    
    59   28   98 1    
    60   29   30 am   BACKBONE|DICT|INTERRES
    61   29   99 1    
    62   30   31 2    
    63   30   32 1    
    64   32   33 1    
    65   32   34 1    
    66   32  100 1    
    67   33  101 1    
    68   33  102 1    
    69   33  103 1    
    70   34   35 am   BACKBONE|DICT|INTERRES
    71   34  104 1    
    72   35   36 2    
    73   37   38 2    
    74   37   39 am   BACKBONE|DICT|INTERRES
    75   39   40 1    
    76   39  105 1    
    77   40   41 1    
    78   40   42 1    
    79   40  106 1    
    80   41  107 1    
    81   41  108 1    
    82   41  109 1    
    83   42   43 2    
    84   42   44 am   BACKBONE|DICT|INTERRES
    85   44   45 1    
    86   44  110 1    
    87   45   46 1    
    88   45   47 1    
    89   45  111 1    
    90   46  112 1    
    91   46  113 1    
    92   46  114 1    
    93   47   48 2    
    94   47   49 am   BACKBONE|DICT|INTERRES
    95   49   50 1    
    96   49  115 1    
    97   50   51 1    
    98   50   52 1    
    99   50  116 1    
   100   51  117 1    
   101   51  118 1    
   102   51  119 1    
   103   52   53 2    
   104   52   54 am   BACKBONE|DICT|INTERRES
   105   54   55 1    
   106   54  120 1    
   107   55   56 1    
   108   55   57 1    
   109   55  121 1    
   110   56  122 1    
   111   56  123 1    
   112   56  124 1    
   113   57   58 2    
   114   57   59 am   BACKBONE|DICT|INTERRES
   115   59   60 1    
   116   59  125 1    
   117   60   61 1    
   118   60   62 1    
   119   60  126 1    
   120   61  127 1    
   121   61  128 1    
   122   61  129 1    
   123   62   63 2    
   124   62   64 am   BACKBONE|DICT|INTERRES
   125   64   65 1    
   126   64  130 1    
   127   65   66 1    
   128   65   69 1    
   129   65  131 1    
   130   66   67 am   BACKBONE|DICT|INTERRES
   131   66   68 2    
   132   67  132 1    
   133   67  133 1    
   134   69   70 1    
   135   69  134 1    
   136   69  135 1    
   137   70   71 1    
   138   71  136 1    
   139   71  137 1    
@<TRIPOS>SUBSTRUCTURE
     1 UNK         1 GROUP             0       ****    0 ROOT    
