@<TRIPOS>MOLECULE
3R137
137   139    1
SMALL
USER_CHARGES


@<TRIPOS>ATOM
      1 CA         26.7114   -6.0039   -7.8593 C.3       0 UNK        -0.2020 
      2 C          26.4834   -5.2216   -6.5756 C.2       0 UNK         0.4855 
      3 O          25.7063   -4.2682   -6.5734 O.2       0 UNK        -0.5197 
      4 N          27.1276   -5.6376   -5.4749 N.am      1 UNK        -0.4892 
      5 CA         27.1687   -4.9683   -4.1579 C.3       1 UNK         0.0835 
      6 C6         27.8551   -3.5725   -4.2153 C.3       12 UNK        -0.0855 
      7 S7         29.5605   -3.6879   -4.8574 S.3       12 UNK        -0.2931 
      8 C8         30.5485   -3.4156   -3.3536 C.3       12 UNK         0.0378 
      9 C9         30.8054   -1.9360   -3.1079 C.ar      12 UNK        -0.0802 
     10 C10        31.6991   -1.2479   -3.9330 C.ar      12 UNK        -0.0944 
     11 C11        31.9896    0.0985   -3.7027 C.ar      12 UNK        -0.0787 
     12 C12        31.3739    0.7616   -2.6382 C.ar      12 UNK        -0.0862 
     13 C13        30.4656    0.0898   -1.8121 C.ar      12 UNK        -0.0733 
     14 C14        30.1861   -1.2611   -2.0498 C.ar      12 UNK        -0.0832 
     15 C15        29.8020    0.8250   -0.6534 C.3       12 UNK         0.0240 
     16 S16        28.0496    1.2149   -0.9753 S.3       12 UNK        -0.2522 
     17 C17        28.1458    2.1722   -2.5260 C.3       12 UNK        -0.0967 
     18 CA         27.6602    1.3130   -3.7248 C.3       5 UNK         0.0660 
     19 N          26.2132    1.0621   -3.6851 N.am      5 UNK        -0.4015 
     20 C          25.2143    1.9192   -3.9364 C.2       4 UNK         0.4946 
     21 O          25.3774    3.0517   -4.3951 O.2       4 UNK        -0.5353 
     22 CA         23.7879    1.4268   -3.6101 C.3       4 UNK         0.0277 
     23 CB         22.7482    2.5616   -3.6828 C.3       4 UNK        -0.1981 
     24 N          23.3363    0.3254   -4.4647 N.am      4 UNK        -0.4209 
     25 C          23.7960   -0.9309   -4.4293 C.2       3 UNK         0.4942 
     26 O          24.7129   -1.3010   -3.6907 O.2       3 UNK        -0.5208 
     27 CA         23.1287   -1.9201   -5.4004 C.3       3 UNK         0.0250 
     28 CB         23.6340   -1.6919   -6.8342 C.3       3 UNK        -0.1990 
     29 N          23.4081   -3.3026   -5.0127 N.am      3 UNK        -0.4232 
     30 C          22.8099   -3.9445   -3.9966 C.2       2 UNK         0.4993 
     31 O          21.8550   -3.4853   -3.3676 O.2       2 UNK        -0.5286 
     32 CA         23.3620   -5.3298   -3.6065 C.3       2 UNK         0.0209 
     33 CB         22.5119   -6.4472   -4.2332 C.3       2 UNK        -0.1931 
     34 N          24.7588   -5.5077   -4.0067 N.am      2 UNK        -0.4546 
     35 C          25.8042   -4.8995   -3.4285 C.2       1 UNK         0.5154 
     36 O          25.7217   -4.3080   -2.3511 O.2       1 UNK        -0.5181 
     37 C          28.1145    1.8534   -5.0932 C.2       5 UNK         0.5014 
     38 O          28.3448    1.0574   -6.0010 O.2       5 UNK        -0.5248 
     39 N          28.1916    3.1849   -5.2426 N.am      6 UNK        -0.4434 
     40 CA         28.5311    3.8879   -6.4860 C.3       6 UNK         0.0363 
     41 CB         28.5822    5.3991   -6.2125 C.3       6 UNK        -0.1936 
     42 C          27.5895    3.5853   -7.6699 C.2       6 UNK         0.5081 
     43 O          27.9885    3.7791   -8.8180 O.2       6 UNK        -0.5248 
     44 N          26.3804    3.0804   -7.3837 N.am      7 UNK        -0.4718 
     45 CA         25.4405    2.5354   -8.3682 C.3       7 UNK         0.0273 
     46 CB         24.1128    2.2201   -7.6632 C.3       7 UNK        -0.1935 
     47 C          25.9632    1.2895   -9.1174 C.2       7 UNK         0.5018 
     48 O          25.4858    1.0175  -10.2196 O.2       7 UNK        -0.5186 
     49 N          26.9294    0.5692   -8.5320 N.am      8 UNK        -0.4240 
     50 CA         27.6355   -0.5573   -9.1381 C.3       8 UNK         0.0235 
     51 CB         26.9653   -1.8816   -8.7267 C.3       8 UNK        -0.2000 
     52 C          29.1031   -0.4674   -8.7025 C.2       8 UNK         0.4941 
     53 O          29.5737   -1.3130   -7.9400 O.2       8 UNK        -0.5273 
     54 N          29.7781    0.6037   -9.1457 N.am      9 UNK        -0.4262 
     55 CA         31.1166    1.0352   -8.7270 C.3       9 UNK         0.0264 
     56 CB         31.3723    2.4545   -9.2691 C.3       9 UNK        -0.1955 
     57 C          32.2603    0.0647   -9.0937 C.2       9 UNK         0.5031 
     58 O          33.1677    0.4287   -9.8456 O.2       9 UNK        -0.5390 
     59 N          32.2353   -1.1368   -8.5041 N.am      10 UNK        -0.4204 
     60 CA         33.2674   -2.1789   -8.5902 C.3       10 UNK         0.0237 
     61 CB         32.7811   -3.4219   -7.8266 C.3       10 UNK        -0.1985 
     62 C          34.6550   -1.7400   -8.0788 C.2       10 UNK         0.4970 
     63 O          35.6561   -2.3606   -8.4382 O.2       10 UNK        -0.4914 
     64 N          34.6856   -0.6723   -7.2723 N.am      11 UNK        -0.4285 
     65 CA         35.8860    0.0435   -6.8210 C.3       11 UNK         0.1007 
     66 C          36.6781    0.7476   -7.9630 C.2       11 UNK         0.5703 
     67 N          36.0947    0.9890   -9.1331 N.am      11 UNK        -0.7361 
     68 O          37.8470    1.0794   -7.7805 O.2       11 UNK        -0.4986 
     69 C69        35.5475    1.0630   -5.6988 C.3       12 UNK        -0.0947 
     70 S70        34.6817    0.3131   -4.2788 S.3       12 UNK        -0.2240 
     71 C71        32.9669    0.8271   -4.6103 C.3       12 UNK         0.0194 
     72 H72        25.7665   -6.3990   -8.2312 H         1 UNK         0.0906 
     73 H73        27.1312   -5.3498   -8.6230 H         1 UNK         0.0906 
     74 H74        27.3966   -6.8387   -7.7136 H         1 UNK         0.0906 
     75 H75        27.7269   -6.4487   -5.5471 H         1 UNK         0.3140 
     76 H76        27.7860   -5.6061   -3.5231 H         1 UNK         0.1085 
     77 H77        27.8776   -3.1012   -3.2311 H         1 UNK         0.0836 
     78 H78        27.2908   -2.8905   -4.8544 H         1 UNK         0.0836 
     79 H79        30.0634   -3.8828   -2.4951 H         1 UNK         0.0731 
     80 H80        31.5064   -3.9244   -3.4718 H         1 UNK         0.0731 
     81 H81        32.1783   -1.7666   -4.7519 H         1 UNK         0.1312 
     82 H82        31.6016    1.8026   -2.4537 H         1 UNK         0.1406 
     83 H83        29.4908   -1.7841   -1.4071 H         1 UNK         0.1631 
     84 H84        30.3348    1.7502   -0.4276 H         1 UNK         0.0717 
     85 H85        29.8662    0.2123    0.2470 H         1 UNK         0.0717 
     86 H86        27.5382    3.0718   -2.4142 H         1 UNK         0.0934 
     87 H87        29.1706    2.5182   -2.6684 H         1 UNK         0.0934 
     88 H88        28.1315    0.3316   -3.6426 H         1 UNK         0.0739 
     89 H89        25.9383    0.1183   -3.4224 H         1 UNK         0.3093 
     90 H90        23.8071    1.0671   -2.5788 H         1 UNK         0.0818 
     91 H91        21.7645    2.2223   -3.3578 H         1 UNK         0.0819 
     92 H92        23.0310    3.3924   -3.0348 H         1 UNK         0.0819 
     93 H93        22.6508    2.9575   -4.6945 H         1 UNK         0.0819 
     94 H94        22.5965    0.5463   -5.1156 H         1 UNK         0.3041 
     95 H95        22.0481   -1.7633   -5.3777 H         1 UNK         0.0784 
     96 H96        23.2661   -2.4597   -7.5152 H         1 UNK         0.0793 
     97 H97        23.3004   -0.7306   -7.2243 H         1 UNK         0.0793 
     98 H98        24.7230   -1.7029   -6.8771 H         1 UNK         0.0793 
     99 H99        24.2135   -3.7324   -5.4611 H         1 UNK         0.3024 
    100 H100       23.2988   -5.4130   -2.5189 H         1 UNK         0.1171 
    101 H101       22.5415   -6.4146   -5.3231 H         1 UNK         0.0786 
    102 H102       21.4671   -6.3567   -3.9325 H         1 UNK         0.0786 
    103 H103       22.8547   -7.4322   -3.9160 H         1 UNK         0.0786 
    104 H104       24.9265   -5.9723   -4.8877 H         1 UNK         0.2977 
    105 H105       27.8953    3.7642   -4.4701 H         1 UNK         0.3127 
    106 H106       29.5294    3.5579   -6.7788 H         1 UNK         0.0770 
    107 H107       27.6144    5.7819   -5.8858 H         1 UNK         0.0814 
    108 H108       28.8635    5.9493   -7.1117 H         1 UNK         0.0814 
    109 H109       29.3178    5.6405   -5.4449 H         1 UNK         0.0814 
    110 H110       26.1199    2.9991   -6.4063 H         1 UNK         0.2983 
    111 H111       25.2585    3.3089   -9.1173 H         1 UNK         0.0947 
    112 H112       23.3755    1.8326   -8.3678 H         1 UNK         0.0806 
    113 H113       23.6855    3.1110   -7.2024 H         1 UNK         0.0806 
    114 H114       24.2485    1.4716   -6.8838 H         1 UNK         0.0806 
    115 H115       27.2979    0.8685   -7.6307 H         1 UNK         0.3000 
    116 H116       27.6117   -0.4773  -10.2271 H         1 UNK         0.0850 
    117 H117       26.9791   -2.0178   -7.6444 H         1 UNK         0.0810 
    118 H118       25.9285   -1.9249   -9.0596 H         1 UNK         0.0810 
    119 H119       27.4839   -2.7341   -9.1663 H         1 UNK         0.0810 
    120 H120       29.2908    1.2380   -9.7629 H         1 UNK         0.3040 
    121 H121       31.1013    1.1027   -7.6370 H         1 UNK         0.0766 
    122 H122       30.6171    3.1595   -8.9248 H         1 UNK         0.0812 
    123 H123       31.3748    2.4743  -10.3597 H         1 UNK         0.0812 
    124 H124       32.3387    2.8345   -8.9343 H         1 UNK         0.0812 
    125 H125       31.3796   -1.3707   -7.9989 H         1 UNK         0.3205 
    126 H126       33.3802   -2.4410   -9.6440 H         1 UNK         0.0754 
    127 H127       31.8389   -3.7928   -8.2314 H         1 UNK         0.0769 
    128 H128       32.6278   -3.2110   -6.7675 H         1 UNK         0.0769 
    129 H129       33.5055   -4.2345   -7.8971 H         1 UNK         0.0769 
    130 H130       33.8069   -0.2467   -7.0290 H         1 UNK         0.2981 
    131 H131       36.5591   -0.7050   -6.3990 H         1 UNK         0.0541 
    132 H132       35.1294    0.7296   -9.3037 H         1 UNK         0.3459 
    133 H133       36.6247    1.4431   -9.8596 H         1 UNK         0.3459 
    134 H134       34.9481    1.8858   -6.0933 H         1 UNK         0.0612 
    135 H135       36.4633    1.5162   -5.3146 H         1 UNK         0.0612 
    136 H136       32.7091    0.6186   -5.6487 H         1 UNK         0.0624 
    137 H137       32.8851    1.9076   -4.4819 H         1 UNK         0.0624 
@<TRIPOS>BOND
     1    1    2 1    
     2    1   72 1    
     3    1   73 1    
     4    1   74 1    
     5    2    3 2    
     6    2    4 am   BACKBONE|DICT|INTERRES
     7    4    5 1    
     8    4   75 1    
     9    5    6 1    
    10    5   35 1    
    11    5   76 1    
    12    6    7 1    
    13    6   77 1    
    14    6   78 1    
    15    7    8 1    
    16    8    9 1    
    17    8   79 1    
    18    8   80 1    
    19    9   10 ar   
    20    9   14 ar   
    21   10   11 ar   
    22   10   81 1    
    23   11   12 ar   
    24   11   71 1    
    25   12   13 ar   
    26   12   82 1    
    27   13   14 ar   
    28   13   15 1    
    29   14   83 1    
    30   15   16 1    
    31   15   84 1    
    32   15   85 1    
    33   16   17 1    
    34   17   18 1    
    35   17   86 1    
    36   17   87 1    
    37   18   19 1    
    38   18   37 1    
    39   18   88 1    
    40   19   20 am   BACKBONE|DICT|INTERRES
    41   19   89 1    
    42   20   21 2    
    43   20   22 1    
    44   22   23 1    
    45   22   24 1    
    46   22   90 1    
    47   23   91 1    
    48   23   92 1    
    49   23   93 1    
    50   24   25 am   BACKBONE|DICT|INTERRES
    51   24   94 1    
    52   25   26 2    
    53   25   27 1    
    54   27   28 1    
    55   27   29 1    
    56   27   95 1    
    57   28   96 1    
    58   28   97 1    
    59   28   98 1    
    60   29   30 am   BACKBONE|DICT|INTERRES
    61   29   99 1    
    62   30   31 2    
    63   30   32 1    
    64   32   33 1    
    65   32   34 1    
    66   32  100 1    
    67   33  101 1    
    68   33  102 1    
    69   33  103 1    
    70   34   35 am   BACKBONE|DICT|INTERRES
    71   34  104 1    
    72   35   36 2    
    73   37   38 2    
    74   37   39 am   BACKBONE|DICT|INTERRES
    75   39   40 1    
    76   39  105 1    
    77   40   41 1    
    78   40   42 1    
    79   40  106 1    
    80   41  107 1    
    81   41  108 1    
    82   41  109 1    
    83   42   43 2    
    84   42   44 am   BACKBONE|DICT|INTERRES
    85   44   45 1    
    86   44  110 1    
    87   45   46 1    
    88   45   47 1    
    89   45  111 1    
    90   46  112 1    
    91   46  113 1    
    92   46  114 1    
    93   47   48 2    
    94   47   49 am   BACKBONE|DICT|INTERRES
    95   49   50 1    
    96   49  115 1    
    97   50   51 1    
    98   50   52 1    
    99   50  116 1    
   100   51  117 1    
   101   51  118 1    
   102   51  119 1    
   103   52   53 2    
   104   52   54 am   BACKBONE|DICT|INTERRES
   105   54   55 1    
   106   54  120 1    
   107   55   56 1    
   108   55   57 1    
   109   55  121 1    
   110   56  122 1    
   111   56  123 1    
   112   56  124 1    
   113   57   58 2    
   114   57   59 am   BACKBONE|DICT|INTERRES
   115   59   60 1    
   116   59  125 1    
   117   60   61 1    
   118   60   62 1    
   119   60  126 1    
   120   61  127 1    
   121   61  128 1    
   122   61  129 1    
   123   62   63 2    
   124   62   64 am   BACKBONE|DICT|INTERRES
   125   64   65 1    
   126   64  130 1    
   127   65   66 1    
   128   65   69 1    
   129   65  131 1    
   130   66   67 am   BACKBONE|DICT|INTERRES
   131   66   68 2    
   132   67  132 1    
   133   67  133 1    
   134   69   70 1    
   135   69  134 1    
   136   69  135 1    
   137   70   71 1    
   138   71  136 1    
   139   71  137 1    
@<TRIPOS>SUBSTRUCTURE
     1 UNK         1 GROUP             0       ****    0 ROOT    
