@<TRIPOS>MOLECULE
3R137
137   139    1
SMALL
USER_CHARGES


@<TRIPOS>ATOM
      1 CA         29.9764   -6.9277    2.8438 C.3       0 UNK        -0.2020 
      2 C          28.8967   -5.8745    2.6465 C.2       0 UNK         0.4855 
      3 O          27.8764   -5.9063    3.3346 O.2       0 UNK        -0.5197 
      4 N          29.1108   -4.9418    1.7094 N.am      1 UNK        -0.4892 
      5 CA         28.1788   -3.8578    1.3671 C.3       1 UNK         0.0835 
      6 C6         28.9039   -2.6621    0.6992 C.3       12 UNK        -0.0855 
      7 S7         29.9539   -3.1223   -0.7234 S.3       12 UNK        -0.2931 
      8 C8         28.9539   -2.5437   -2.1257 C.3       12 UNK         0.0378 
      9 C9         29.0408   -1.0386   -2.3239 C.ar      12 UNK        -0.0802 
     10 C10        30.1148   -0.4943   -3.0314 C.ar      12 UNK        -0.0944 
     11 C11        30.1768    0.8791   -3.2929 C.ar      12 UNK        -0.0787 
     12 C12        29.1728    1.7146   -2.7941 C.ar      12 UNK        -0.0862 
     13 C13        28.1003    1.1840   -2.0710 C.ar      12 UNK        -0.0733 
     14 C14        28.0334   -0.1948   -1.8481 C.ar      12 UNK        -0.0832 
     15 C15        27.0084    2.0973   -1.5348 C.3       12 UNK         0.0240 
     16 S16        25.4619    1.9280   -2.4777 S.3       12 UNK        -0.2522 
     17 C17        25.9033    2.6788   -4.0847 C.3       12 UNK        -0.0967 
     18 CA         26.3208    1.6466   -5.1699 C.3       5 UNK         0.0660 
     19 N          25.3696    0.5285   -5.2535 N.am      5 UNK        -0.4015 
     20 C          25.6200   -0.6884   -5.7500 C.2       4 UNK         0.4946 
     21 O          26.6643   -0.9895   -6.3340 O.2       4 UNK        -0.5353 
     22 CA         24.4867   -1.7200   -5.6378 C.3       4 UNK         0.0277 
     23 CB         23.6674   -1.7553   -6.9385 C.3       4 UNK        -0.1981 
     24 N          25.0140   -3.0574   -5.3621 N.am      4 UNK        -0.4209 
     25 C          25.5691   -3.4239   -4.1997 C.2       3 UNK         0.4942 
     26 O          25.6246   -2.6933   -3.2079 O.2       3 UNK        -0.5208 
     27 CA         26.1730   -4.8394   -4.1596 C.3       3 UNK         0.0250 
     28 CB         27.4908   -4.9007   -4.9514 C.3       3 UNK        -0.1990 
     29 N          26.4059   -5.3065   -2.7884 N.am      3 UNK        -0.4232 
     30 C          25.4399   -5.7657   -1.9815 C.2       2 UNK         0.4993 
     31 O          24.2568   -5.8556   -2.3149 O.2       2 UNK        -0.5286 
     32 CA         25.8530   -6.2499   -0.5819 C.3       2 UNK         0.0209 
     33 CB         26.1508   -7.7586   -0.6056 C.3       2 UNK        -0.1931 
     34 N          27.0029   -5.5474   -0.0040 N.am      2 UNK        -0.4546 
     35 C          26.9433   -4.3342    0.5656 C.2       1 UNK         0.5154 
     36 O          25.9440   -3.6155    0.5235 O.2       1 UNK        -0.5181 
     37 C          26.5775    2.3265   -6.5391 C.2       5 UNK         0.5014 
     38 O          26.6602    3.5547   -6.6148 O.2       5 UNK        -0.5248 
     39 N          26.6819    1.5301   -7.6091 N.am      6 UNK        -0.4434 
     40 CA         26.8519    1.9613   -8.9950 C.3       6 UNK         0.0363 
     41 CB         26.3408    0.8448   -9.9246 C.3       6 UNK        -0.1936 
     42 C          28.3145    2.3328   -9.2809 C.2       6 UNK         0.5081 
     43 O          28.9918    1.6306  -10.0324 O.2       6 UNK        -0.5248 
     44 N          28.7938    3.4197   -8.6626 N.am      7 UNK        -0.4718 
     45 CA         30.1794    3.9053   -8.7377 C.3       7 UNK         0.0273 
     46 CB         30.3240    5.1670   -7.8739 C.3       7 UNK        -0.1935 
     47 C          30.6914    4.1620  -10.1677 C.2       7 UNK         0.5018 
     48 O          31.8715    3.9353  -10.4344 O.2       7 UNK        -0.5186 
     49 N          29.7864    4.5508  -11.0778 N.am      8 UNK        -0.4240 
     50 CA         30.0396    4.6893  -12.5170 C.3       8 UNK         0.0235 
     51 CB         28.8104    5.3281  -13.1837 C.3       8 UNK        -0.2000 
     52 C          30.4044    3.3658  -13.2217 C.2       8 UNK         0.4941 
     53 O          31.0638    3.4043  -14.2607 O.2       8 UNK        -0.5273 
     54 N          29.9939    2.2299  -12.6416 N.am      9 UNK        -0.4262 
     55 CA         30.3322    0.8714  -13.0693 C.3       9 UNK         0.0264 
     56 CB         29.0278    0.0653  -13.2143 C.3       9 UNK        -0.1955 
     57 C          31.3036    0.2018  -12.0752 C.2       9 UNK         0.5031 
     58 O          31.3887   -1.0272  -12.0511 O.2       9 UNK        -0.5390 
     59 N          32.0021    1.0099  -11.2602 N.am      10 UNK        -0.4204 
     60 CA         32.9510    0.6235  -10.2085 C.3       10 UNK         0.0237 
     61 CB         34.1825   -0.0904  -10.8081 C.3       10 UNK        -0.1985 
     62 C          32.3197   -0.1542   -9.0339 C.2       10 UNK         0.4970 
     63 O          33.0453   -0.8615   -8.3339 O.2       10 UNK        -0.4914 
     64 N          31.0027    0.0108   -8.8302 N.am      11 UNK        -0.4285 
     65 CA         30.1725   -0.5284   -7.7366 C.3       11 UNK         0.1007 
     66 C          30.2761   -2.0615   -7.4655 C.2       11 UNK         0.5703 
     67 N          30.5895   -2.8718   -8.4704 N.am      11 UNK        -0.7361 
     68 O          30.0418   -2.5325   -6.3554 O.2       11 UNK        -0.4986 
     69 C69        30.1761    0.3770   -6.4701 C.3       12 UNK        -0.0947 
     70 S70        31.7663    0.4754   -5.5786 S.3       12 UNK        -0.2240 
     71 C71        31.3139    1.4740   -4.1193 C.3       12 UNK         0.0194 
     72 H72        30.8210   -6.7777    2.1715 H         1 UNK         0.0906 
     73 H73        30.3487   -6.8957    3.8675 H         1 UNK         0.0906 
     74 H74        29.5691   -7.9216    2.6603 H         1 UNK         0.0906 
     75 H75        29.9672   -4.9523    1.1710 H         1 UNK         0.3140 
     76 H76        27.7711   -3.4820    2.3088 H         1 UNK         0.1085 
     77 H77        29.5561   -2.1898    1.4354 H         1 UNK         0.0836 
     78 H78        28.1915   -1.8866    0.4165 H         1 UNK         0.0836 
     79 H79        27.9193   -2.8593   -1.9939 H         1 UNK         0.0731 
     80 H80        29.3179   -3.0380   -3.0257 H         1 UNK         0.0731 
     81 H81        30.8874   -1.1503   -3.4086 H         1 UNK         0.1312 
     82 H82        29.2185    2.7790   -2.9803 H         1 UNK         0.1406 
     83 H83        27.1864   -0.6104   -1.3187 H         1 UNK         0.1631 
     84 H84        27.3287    3.1403   -1.5407 H         1 UNK         0.0717 
     85 H85        26.8122    1.8458   -0.4915 H         1 UNK         0.0717 
     86 H86        25.0355    3.2493   -4.4217 H         1 UNK         0.0934 
     87 H87        26.6973    3.4120   -3.9297 H         1 UNK         0.0934 
     88 H88        27.2802    1.2240   -4.8663 H         1 UNK         0.0739 
     89 H89        24.4739    0.6966   -4.8190 H         1 UNK         0.3093 
     90 H90        23.8267   -1.4372   -4.8145 H         1 UNK         0.0818 
     91 H91        23.2370   -0.7769   -7.1566 H         1 UNK         0.0819 
     92 H92        24.2809   -2.0382   -7.7952 H         1 UNK         0.0819 
     93 H93        22.8406   -2.4625   -6.8687 H         1 UNK         0.0819 
     94 H94        25.0454   -3.6984   -6.1413 H         1 UNK         0.3041 
     95 H95        25.4631   -5.5205   -4.6347 H         1 UNK         0.0784 
     96 H96        27.3262   -4.6740   -6.0056 H         1 UNK         0.0793 
     97 H97        28.2215   -4.1813   -4.5869 H         1 UNK         0.0793 
     98 H98        27.9405   -5.8926   -4.9039 H         1 UNK         0.0793 
     99 H99        27.3451   -5.2380   -2.4270 H         1 UNK         0.3024 
    100 H100       24.9942   -6.0886    0.0746 H         1 UNK         0.1171 
    101 H101       27.0146   -7.9913   -1.2296 H         1 UNK         0.0786 
    102 H102       26.3468   -8.1402    0.3968 H         1 UNK         0.0786 
    103 H103       25.3022   -8.3181   -1.0023 H         1 UNK         0.0786 
    104 H104       27.8642   -6.0669    0.0851 H         1 UNK         0.2977 
    105 H105       26.6742    0.5276   -7.4333 H         1 UNK         0.3127 
    106 H106       26.2430    2.8507   -9.1707 H         1 UNK         0.0770 
    107 H107       26.8983   -0.0830   -9.7883 H         1 UNK         0.0814 
    108 H108       26.4386    1.1332  -10.9721 H         1 UNK         0.0814 
    109 H109       25.2870    0.6310   -9.7453 H         1 UNK         0.0814 
    110 H110       28.1708    3.8985   -8.0199 H         1 UNK         0.2983 
    111 H111       30.8162    3.1279   -8.3100 H         1 UNK         0.0947 
    112 H112       31.3501    5.5375   -7.8912 H         1 UNK         0.0806 
    113 H113       30.0723    4.9651   -6.8324 H         1 UNK         0.0806 
    114 H114       29.6792    5.9733   -8.2255 H         1 UNK         0.0806 
    115 H115       28.8394    4.7069  -10.7637 H         1 UNK         0.3000 
    116 H116       30.8883    5.3656  -12.6401 H         1 UNK         0.0850 
    117 H117       27.9221    4.7044  -13.0753 H         1 UNK         0.0810 
    118 H118       28.9775    5.4737  -14.2520 H         1 UNK         0.0810 
    119 H119       28.5898    6.3067  -12.7570 H         1 UNK         0.0810 
    120 H120       29.4860    2.2807  -11.7620 H         1 UNK         0.3040 
    121 H121       30.8324    0.8906  -14.0394 H         1 UNK         0.0766 
    122 H122       28.5185   -0.0495  -12.2565 H         1 UNK         0.0812 
    123 H123       28.3376    0.5492  -13.9053 H         1 UNK         0.0812 
    124 H124       29.2236   -0.9349  -13.6025 H         1 UNK         0.0812 
    125 H125       31.8500    2.0094  -11.3414 H         1 UNK         0.3205 
    126 H126       33.3026    1.5612   -9.7758 H         1 UNK         0.0754 
    127 H127       34.9628   -0.2241  -10.0578 H         1 UNK         0.0769 
    128 H128       34.6176    0.4869  -11.6239 H         1 UNK         0.0769 
    129 H129       33.9308   -1.0791  -11.1927 H         1 UNK         0.0769 
    130 H130       30.4867    0.5914   -9.4844 H         1 UNK         0.2981 
    131 H131       29.1592   -0.4418   -8.1298 H         1 UNK         0.0541 
    132 H132       30.6507   -3.8631   -8.3034 H         1 UNK         0.3459 
    133 H133       30.7947   -2.4961   -9.3832 H         1 UNK         0.3459 
    134 H134       29.4032    0.0332   -5.7814 H         1 UNK         0.0612 
    135 H135       29.8867    1.3916   -6.7443 H         1 UNK         0.0612 
    136 H136       32.1923    1.5800   -3.4818 H         1 UNK         0.0624 
    137 H137       31.0544    2.4768   -4.4624 H         1 UNK         0.0624 
@<TRIPOS>BOND
     1    1    2 1    
     2    1   72 1    
     3    1   73 1    
     4    1   74 1    
     5    2    3 2    
     6    2    4 am   BACKBONE|DICT|INTERRES
     7    4    5 1    
     8    4   75 1    
     9    5    6 1    
    10    5   35 1    
    11    5   76 1    
    12    6    7 1    
    13    6   77 1    
    14    6   78 1    
    15    7    8 1    
    16    8    9 1    
    17    8   79 1    
    18    8   80 1    
    19    9   10 ar   
    20    9   14 ar   
    21   10   11 ar   
    22   10   81 1    
    23   11   12 ar   
    24   11   71 1    
    25   12   13 ar   
    26   12   82 1    
    27   13   14 ar   
    28   13   15 1    
    29   14   83 1    
    30   15   16 1    
    31   15   84 1    
    32   15   85 1    
    33   16   17 1    
    34   17   18 1    
    35   17   86 1    
    36   17   87 1    
    37   18   19 1    
    38   18   37 1    
    39   18   88 1    
    40   19   20 am   BACKBONE|DICT|INTERRES
    41   19   89 1    
    42   20   21 2    
    43   20   22 1    
    44   22   23 1    
    45   22   24 1    
    46   22   90 1    
    47   23   91 1    
    48   23   92 1    
    49   23   93 1    
    50   24   25 am   BACKBONE|DICT|INTERRES
    51   24   94 1    
    52   25   26 2    
    53   25   27 1    
    54   27   28 1    
    55   27   29 1    
    56   27   95 1    
    57   28   96 1    
    58   28   97 1    
    59   28   98 1    
    60   29   30 am   BACKBONE|DICT|INTERRES
    61   29   99 1    
    62   30   31 2    
    63   30   32 1    
    64   32   33 1    
    65   32   34 1    
    66   32  100 1    
    67   33  101 1    
    68   33  102 1    
    69   33  103 1    
    70   34   35 am   BACKBONE|DICT|INTERRES
    71   34  104 1    
    72   35   36 2    
    73   37   38 2    
    74   37   39 am   BACKBONE|DICT|INTERRES
    75   39   40 1    
    76   39  105 1    
    77   40   41 1    
    78   40   42 1    
    79   40  106 1    
    80   41  107 1    
    81   41  108 1    
    82   41  109 1    
    83   42   43 2    
    84   42   44 am   BACKBONE|DICT|INTERRES
    85   44   45 1    
    86   44  110 1    
    87   45   46 1    
    88   45   47 1    
    89   45  111 1    
    90   46  112 1    
    91   46  113 1    
    92   46  114 1    
    93   47   48 2    
    94   47   49 am   BACKBONE|DICT|INTERRES
    95   49   50 1    
    96   49  115 1    
    97   50   51 1    
    98   50   52 1    
    99   50  116 1    
   100   51  117 1    
   101   51  118 1    
   102   51  119 1    
   103   52   53 2    
   104   52   54 am   BACKBONE|DICT|INTERRES
   105   54   55 1    
   106   54  120 1    
   107   55   56 1    
   108   55   57 1    
   109   55  121 1    
   110   56  122 1    
   111   56  123 1    
   112   56  124 1    
   113   57   58 2    
   114   57   59 am   BACKBONE|DICT|INTERRES
   115   59   60 1    
   116   59  125 1    
   117   60   61 1    
   118   60   62 1    
   119   60  126 1    
   120   61  127 1    
   121   61  128 1    
   122   61  129 1    
   123   62   63 2    
   124   62   64 am   BACKBONE|DICT|INTERRES
   125   64   65 1    
   126   64  130 1    
   127   65   66 1    
   128   65   69 1    
   129   65  131 1    
   130   66   67 am   BACKBONE|DICT|INTERRES
   131   66   68 2    
   132   67  132 1    
   133   67  133 1    
   134   69   70 1    
   135   69  134 1    
   136   69  135 1    
   137   70   71 1    
   138   71  136 1    
   139   71  137 1    
@<TRIPOS>SUBSTRUCTURE
     1 UNK         1 GROUP             0       ****    0 ROOT    
