@<TRIPOS>MOLECULE
3R137
137   139    1
SMALL
USER_CHARGES


@<TRIPOS>ATOM
      1 CA         23.3656   -3.9877   -0.5246 C.3       0 UNK        -0.2020 
      2 C          24.3819   -3.0051    0.0364 C.2       0 UNK         0.4855 
      3 O          24.0550   -2.2389    0.9427 O.2       0 UNK        -0.5197 
      4 N          25.6142   -3.0243   -0.4881 N.am      1 UNK        -0.4892 
      5 CA         26.7253   -2.1699   -0.0474 C.3       1 UNK         0.0835 
      6 C6         28.1029   -2.7978   -0.3795 C.3       12 UNK        -0.0855 
      7 S7         28.3257   -3.1885   -2.1462 S.3       12 UNK        -0.2931 
      8 C8         30.1082   -3.5587   -2.2003 C.3       12 UNK         0.0378 
      9 C9         30.6301   -3.5011   -3.6284 C.ar      12 UNK        -0.0802 
     10 C10        31.5119   -2.4888   -4.0211 C.ar      12 UNK        -0.0944 
     11 C11        31.9488   -2.3993   -5.3466 C.ar      12 UNK        -0.0787 
     12 C12        31.5081   -3.3460   -6.2776 C.ar      12 UNK        -0.0862 
     13 C13        30.6307   -4.3654   -5.8960 C.ar      12 UNK        -0.0733 
     14 C14        30.2060   -4.4447   -4.5671 C.ar      12 UNK        -0.0832 
     15 C15        30.1354   -5.3789   -6.9176 C.3       12 UNK         0.0240 
     16 S16        28.9139   -4.6672   -8.0676 S.3       12 UNK        -0.2522 
     17 C17        27.5117   -4.2668   -6.9655 C.3       12 UNK        -0.0967 
     18 CA         26.7379   -3.0040   -7.4315 C.3       5 UNK         0.0660 
     19 N          25.3757   -2.9251   -6.9006 N.am      5 UNK        -0.4015 
     20 C          25.0051   -2.8758   -5.6170 C.2       4 UNK         0.4946 
     21 O          25.7888   -2.8301   -4.6666 O.2       4 UNK        -0.5353 
     22 CA         23.4928   -2.8881   -5.3481 C.3       4 UNK         0.0277 
     23 CB         23.1165   -3.9994   -4.3545 C.3       4 UNK        -0.1981 
     24 N          23.0872   -1.5954   -4.8083 N.am      4 UNK        -0.4209 
     25 C          22.9138   -0.4901   -5.5444 C.2       3 UNK         0.4942 
     26 O          22.9253   -0.4754   -6.7760 O.2       3 UNK        -0.5208 
     27 CA         22.7223    0.8275   -4.7719 C.3       3 UNK         0.0250 
     28 CB         21.2314    1.0806   -4.4961 C.3       3 UNK        -0.1990 
     29 N          23.4711    0.8900   -3.5097 N.am      3 UNK        -0.4232 
     30 C          24.8050    0.7949   -3.4004 C.2       2 UNK         0.4993 
     31 O          25.5528    0.6185   -4.3604 O.2       2 UNK        -0.5286 
     32 CA         25.4086    0.9074   -1.9951 C.3       2 UNK         0.0209 
     33 CB         24.4987    1.6391   -0.9810 C.3       2 UNK        -0.1931 
     34 N          25.7418   -0.4314   -1.5104 N.am      2 UNK        -0.4546 
     35 C          26.6064   -0.7019   -0.5228 C.2       1 UNK         0.5154 
     36 O          27.2798    0.1630    0.0411 O.2       1 UNK        -0.5181 
     37 C          27.5457   -1.7014   -7.2554 C.2       5 UNK         0.5014 
     38 O          27.8831   -1.0855   -8.2675 O.2       5 UNK        -0.5248 
     39 N          27.8576   -1.3107   -6.0097 N.am      6 UNK        -0.4434 
     40 CA         28.8310   -0.2614   -5.6689 C.3       6 UNK         0.0363 
     41 CB         28.9208   -0.0708   -4.1475 C.3       6 UNK        -0.1936 
     42 C          28.6011    1.0890   -6.3606 C.2       6 UNK         0.5081 
     43 O          29.5539    1.6609   -6.8886 O.2       6 UNK        -0.5248 
     44 N          27.3442    1.5480   -6.3900 N.am      7 UNK        -0.4718 
     45 CA         26.9168    2.7886   -7.0446 C.3       7 UNK         0.0273 
     46 CB         25.4297    3.0292   -6.7405 C.3       7 UNK        -0.1935 
     47 C          27.1638    2.8315   -8.5654 C.2       7 UNK         0.5018 
     48 O          27.2992    3.9265   -9.1131 O.2       7 UNK        -0.5186 
     49 N          27.2144    1.6615   -9.2161 N.am      8 UNK        -0.4240 
     50 CA         27.5117    1.5192  -10.6412 C.3       8 UNK         0.0235 
     51 CB         26.6112    0.4273  -11.2437 C.3       8 UNK        -0.2000 
     52 C          28.9929    1.1844  -10.8695 C.2       8 UNK         0.4941 
     53 O          29.6106    1.7601  -11.7658 O.2       8 UNK        -0.5273 
     54 N          29.5287    0.2497  -10.0730 N.am      9 UNK        -0.4262 
     55 CA         30.8884   -0.2762  -10.1942 C.3       9 UNK         0.0264 
     56 CB         30.9924   -1.5817   -9.3931 C.3       9 UNK        -0.1955 
     57 C          31.9827    0.7065   -9.7520 C.2       9 UNK         0.5031 
     58 O          33.0749    0.6712  -10.3216 O.2       9 UNK        -0.5390 
     59 N          31.6950    1.5360   -8.7375 N.am      10 UNK        -0.4204 
     60 CA         32.5477    2.5530   -8.1037 C.3       10 UNK         0.0237 
     61 CB         32.9537    3.6513   -9.1057 C.3       10 UNK        -0.1985 
     62 C          33.7763    2.0092   -7.3485 C.2       10 UNK         0.4970 
     63 O          34.0552    2.4922   -6.2509 O.2       10 UNK        -0.4914 
     64 N          34.4862    1.0387   -7.9386 N.am      11 UNK        -0.4285 
     65 CA         35.7327    0.4261   -7.4429 C.3       11 UNK         0.1007 
     66 C          36.9481    1.4048   -7.3770 C.2       11 UNK         0.5703 
     67 N          36.9270    2.5329   -8.0780 N.am      11 UNK        -0.7361 
     68 O          37.9441    1.1278   -6.7122 O.2       11 UNK        -0.4986 
     69 C69        35.5327   -0.3861   -6.1289 C.3       12 UNK        -0.0947 
     70 S70        34.4781   -1.8593   -6.3461 S.3       12 UNK        -0.2240 
     71 C71        32.8608   -1.2561   -5.7736 C.3       12 UNK         0.0194 
     72 H72        23.8351   -4.7400   -1.1580 H         1 UNK         0.0906 
     73 H73        22.8589   -4.5070    0.2884 H         1 UNK         0.0906 
     74 H74        22.6138   -3.4598   -1.1104 H         1 UNK         0.0906 
     75 H75        25.8387   -3.6578   -1.2444 H         1 UNK         0.3140 
     76 H76        26.6704   -2.1148    1.0426 H         1 UNK         0.1085 
     77 H77        28.9094   -2.1401   -0.0490 H         1 UNK         0.0836 
     78 H78        28.2263   -3.7228    0.1862 H         1 UNK         0.0836 
     79 H79        30.2875   -4.5492   -1.7799 H         1 UNK         0.0731 
     80 H80        30.6485   -2.8498   -1.5711 H         1 UNK         0.0731 
     81 H81        31.8366   -1.7524   -3.2989 H         1 UNK         0.1312 
     82 H82        31.8430   -3.2874   -7.3032 H         1 UNK         0.1406 
     83 H83        29.5191   -5.2234   -4.2639 H         1 UNK         0.1631 
     84 H84        29.6972   -6.2478   -6.4240 H         1 UNK         0.0717 
     85 H85        30.9839   -5.7514   -7.4932 H         1 UNK         0.0717 
     86 H86        26.8465   -5.1315   -6.9671 H         1 UNK         0.0934 
     87 H87        27.8460   -4.1551   -5.9341 H         1 UNK         0.0934 
     88 H88        26.5848   -3.1122   -8.5069 H         1 UNK         0.0739 
     89 H89        24.6485   -2.8971   -7.6017 H         1 UNK         0.3093 
     90 H90        22.9536   -3.0723   -6.2802 H         1 UNK         0.0818 
     91 H91        22.0465   -4.0039   -4.1460 H         1 UNK         0.0819 
     92 H92        23.3742   -4.9809   -4.7545 H         1 UNK         0.0819 
     93 H93        23.6448   -3.8871   -3.4086 H         1 UNK         0.0819 
     94 H94        23.0901   -1.5016   -3.8044 H         1 UNK         0.3041 
     95 H95        23.0903    1.6330   -5.4098 H         1 UNK         0.0784 
     96 H96        20.6550    1.0612   -5.4222 H         1 UNK         0.0793 
     97 H97        20.8080    0.3251   -3.8329 H         1 UNK         0.0793 
     98 H98        21.0719    2.0576   -4.0392 H         1 UNK         0.0793 
     99 H99        22.9323    1.0434   -2.6695 H         1 UNK         0.3024 
    100 H100       26.3320    1.4812   -2.1032 H         1 UNK         0.1171 
    101 H101       24.1661    2.6029   -1.3694 H         1 UNK         0.0786 
    102 H102       23.6147    1.0541   -0.7243 H         1 UNK         0.0786 
    103 H103       25.0324    1.8434   -0.0526 H         1 UNK         0.0786 
    104 H104       25.2890   -1.2072   -1.9733 H         1 UNK         0.2977 
    105 H105       27.4391   -1.8263   -5.2401 H         1 UNK         0.3127 
    106 H106       29.8002   -0.6250   -6.0125 H         1 UNK         0.0770 
    107 H107       27.9670    0.2160   -3.7100 H         1 UNK         0.0814 
    108 H108       29.6443    0.7042   -3.8915 H         1 UNK         0.0814 
    109 H109       29.2449   -0.9821   -3.6551 H         1 UNK         0.0814 
    110 H110       26.6392    1.0390   -5.8593 H         1 UNK         0.2983 
    111 H111       27.4940    3.6044   -6.6045 H         1 UNK         0.0947 
    112 H112       25.0772    3.9512   -7.2051 H         1 UNK         0.0806 
    113 H113       25.2543    3.1212   -5.6686 H         1 UNK         0.0806 
    114 H114       24.8085    2.2146   -7.1152 H         1 UNK         0.0806 
    115 H115       27.1536    0.8052   -8.6758 H         1 UNK         0.3000 
    116 H116       27.2965    2.4538  -11.1640 H         1 UNK         0.0850 
    117 H117       26.8100    0.3024  -12.3090 H         1 UNK         0.0810 
    118 H118       25.5568    0.6837  -11.1390 H         1 UNK         0.0810 
    119 H119       26.7681   -0.5410  -10.7666 H         1 UNK         0.0810 
    120 H120       28.9318   -0.1982   -9.3775 H         1 UNK         0.3040 
    121 H121       31.0665   -0.5096  -11.2461 H         1 UNK         0.0766 
    122 H122       32.0014   -1.9941   -9.4386 H         1 UNK         0.0812 
    123 H123       30.3128   -2.3402   -9.7820 H         1 UNK         0.0812 
    124 H124       30.7446   -1.4229   -8.3435 H         1 UNK         0.0812 
    125 H125       30.7804    1.4483   -8.2967 H         1 UNK         0.3205 
    126 H126       31.9135    3.0243   -7.3511 H         1 UNK         0.0754 
    127 H127       33.5007    4.4516   -8.6055 H         1 UNK         0.0769 
    128 H128       32.0776    4.1011   -9.5732 H         1 UNK         0.0769 
    129 H129       33.5951    3.2670   -9.8992 H         1 UNK         0.0769 
    130 H130       34.1763    0.7412   -8.8613 H         1 UNK         0.2981 
    131 H131       36.0208   -0.2877   -8.2152 H         1 UNK         0.0541 
    132 H132       37.7211    3.1522   -8.0391 H         1 UNK         0.3459 
    133 H133       36.1291    2.7677   -8.6454 H         1 UNK         0.3459 
    134 H134       35.1465    0.2449   -5.3280 H         1 UNK         0.0612 
    135 H135       36.4894   -0.7643   -5.7655 H         1 UNK         0.0612 
    136 H136       32.3853   -0.6906   -6.5755 H         1 UNK         0.0624 
    137 H137       33.0029   -0.5584   -4.9472 H         1 UNK         0.0624 
@<TRIPOS>BOND
     1    1    2 1    
     2    1   72 1    
     3    1   73 1    
     4    1   74 1    
     5    2    3 2    
     6    2    4 am   BACKBONE|DICT|INTERRES
     7    4    5 1    
     8    4   75 1    
     9    5    6 1    
    10    5   35 1    
    11    5   76 1    
    12    6    7 1    
    13    6   77 1    
    14    6   78 1    
    15    7    8 1    
    16    8    9 1    
    17    8   79 1    
    18    8   80 1    
    19    9   10 ar   
    20    9   14 ar   
    21   10   11 ar   
    22   10   81 1    
    23   11   12 ar   
    24   11   71 1    
    25   12   13 ar   
    26   12   82 1    
    27   13   14 ar   
    28   13   15 1    
    29   14   83 1    
    30   15   16 1    
    31   15   84 1    
    32   15   85 1    
    33   16   17 1    
    34   17   18 1    
    35   17   86 1    
    36   17   87 1    
    37   18   19 1    
    38   18   37 1    
    39   18   88 1    
    40   19   20 am   BACKBONE|DICT|INTERRES
    41   19   89 1    
    42   20   21 2    
    43   20   22 1    
    44   22   23 1    
    45   22   24 1    
    46   22   90 1    
    47   23   91 1    
    48   23   92 1    
    49   23   93 1    
    50   24   25 am   BACKBONE|DICT|INTERRES
    51   24   94 1    
    52   25   26 2    
    53   25   27 1    
    54   27   28 1    
    55   27   29 1    
    56   27   95 1    
    57   28   96 1    
    58   28   97 1    
    59   28   98 1    
    60   29   30 am   BACKBONE|DICT|INTERRES
    61   29   99 1    
    62   30   31 2    
    63   30   32 1    
    64   32   33 1    
    65   32   34 1    
    66   32  100 1    
    67   33  101 1    
    68   33  102 1    
    69   33  103 1    
    70   34   35 am   BACKBONE|DICT|INTERRES
    71   34  104 1    
    72   35   36 2    
    73   37   38 2    
    74   37   39 am   BACKBONE|DICT|INTERRES
    75   39   40 1    
    76   39  105 1    
    77   40   41 1    
    78   40   42 1    
    79   40  106 1    
    80   41  107 1    
    81   41  108 1    
    82   41  109 1    
    83   42   43 2    
    84   42   44 am   BACKBONE|DICT|INTERRES
    85   44   45 1    
    86   44  110 1    
    87   45   46 1    
    88   45   47 1    
    89   45  111 1    
    90   46  112 1    
    91   46  113 1    
    92   46  114 1    
    93   47   48 2    
    94   47   49 am   BACKBONE|DICT|INTERRES
    95   49   50 1    
    96   49  115 1    
    97   50   51 1    
    98   50   52 1    
    99   50  116 1    
   100   51  117 1    
   101   51  118 1    
   102   51  119 1    
   103   52   53 2    
   104   52   54 am   BACKBONE|DICT|INTERRES
   105   54   55 1    
   106   54  120 1    
   107   55   56 1    
   108   55   57 1    
   109   55  121 1    
   110   56  122 1    
   111   56  123 1    
   112   56  124 1    
   113   57   58 2    
   114   57   59 am   BACKBONE|DICT|INTERRES
   115   59   60 1    
   116   59  125 1    
   117   60   61 1    
   118   60   62 1    
   119   60  126 1    
   120   61  127 1    
   121   61  128 1    
   122   61  129 1    
   123   62   63 2    
   124   62   64 am   BACKBONE|DICT|INTERRES
   125   64   65 1    
   126   64  130 1    
   127   65   66 1    
   128   65   69 1    
   129   65  131 1    
   130   66   67 am   BACKBONE|DICT|INTERRES
   131   66   68 2    
   132   67  132 1    
   133   67  133 1    
   134   69   70 1    
   135   69  134 1    
   136   69  135 1    
   137   70   71 1    
   138   71  136 1    
   139   71  137 1    
@<TRIPOS>SUBSTRUCTURE
     1 UNK         1 GROUP             0       ****    0 ROOT    
