@<TRIPOS>MOLECULE
3R137
137   139    1
SMALL
USER_CHARGES


@<TRIPOS>ATOM
      1 CA         31.1462    0.4099   -2.2997 C.3       0 UNK        -0.2020 
      2 C          30.0893   -0.6455   -2.5848 C.2       0 UNK         0.4855 
      3 O          29.5328   -0.6791   -3.6792 O.2       0 UNK        -0.5197 
      4 N          29.7822   -1.4908   -1.5927 N.am      1 UNK        -0.4892 
      5 CA         28.8436   -2.6199   -1.6978 C.3       1 UNK         0.0835 
      6 C6         29.1451   -3.7298   -0.6520 C.3       12 UNK        -0.0855 
      7 S7         30.9029   -4.2198   -0.5477 S.3       12 UNK        -0.2931 
      8 C8         30.9867   -5.6327   -1.6958 C.3       12 UNK         0.0378 
      9 C9         30.9608   -5.1819   -3.1491 C.ar      12 UNK        -0.0802 
     10 C10        32.0424   -4.4700   -3.6776 C.ar      12 UNK        -0.0944 
     11 C11        32.0243   -4.0313   -5.0040 C.ar      12 UNK        -0.0787 
     12 C12        30.9192   -4.3193   -5.8084 C.ar      12 UNK        -0.0862 
     13 C13        29.8315   -5.0317   -5.2930 C.ar      12 UNK        -0.0733 
     14 C14        29.8615   -5.4696   -3.9647 C.ar      12 UNK        -0.0832 
     15 C15        28.6138   -5.2995   -6.1691 C.3       12 UNK         0.0240 
     16 S16        27.1169   -4.4515   -5.5633 S.3       12 UNK        -0.2522 
     17 C17        27.6545   -2.7095   -5.5026 C.3       12 UNK        -0.0967 
     18 CA         27.0591   -1.8418   -6.6314 C.3       5 UNK         0.0660 
     19 N          25.5939   -1.7904   -6.6147 N.am      5 UNK        -0.4015 
     20 C          24.8540   -1.2958   -7.6180 C.2       4 UNK         0.4946 
     21 O          25.3322   -0.8712   -8.6687 O.2       4 UNK        -0.5353 
     22 CA         23.3311   -1.2227   -7.4228 C.3       4 UNK         0.0277 
     23 CB         22.6653   -2.5150   -7.9209 C.3       4 UNK        -0.1981 
     24 N          22.9218   -0.9617   -6.0425 N.am      4 UNK        -0.4209 
     25 C          23.2073    0.1474   -5.3457 C.2       3 UNK         0.4942 
     26 O          23.8550    1.0919   -5.8004 O.2       3 UNK        -0.5208 
     27 CA         22.7059    0.2074   -3.8864 C.3       3 UNK         0.0250 
     28 CB         21.7725   -0.9617   -3.4951 C.3       3 UNK        -0.1990 
     29 N          23.7872    0.3135   -2.8961 N.am      3 UNK        -0.4232 
     30 C          24.9059   -0.4249   -2.8261 C.2       2 UNK         0.4993 
     31 O          25.2522   -1.2230   -3.6988 O.2       2 UNK        -0.5286 
     32 CA         25.7779   -0.2012   -1.5731 C.3       2 UNK         0.0209 
     33 CB         25.0193   -0.5761   -0.2811 C.3       2 UNK        -0.1931 
     34 N          27.0828   -0.8798   -1.6241 N.am      2 UNK        -0.4546 
     35 C          27.3532   -2.1965   -1.6273 C.2       1 UNK         0.5154 
     36 O          26.4912   -3.0732   -1.5438 O.2       1 UNK        -0.5181 
     37 C          27.6527   -0.4253   -6.5704 C.2       5 UNK         0.5014 
     38 O          28.5482   -0.1121   -7.3552 O.2       5 UNK        -0.5248 
     39 N          27.1089    0.4192   -5.6827 N.am      6 UNK        -0.4434 
     40 CA         27.5033    1.8225   -5.5409 C.3       6 UNK         0.0363 
     41 CB         26.8368    2.4307   -4.2983 C.3       6 UNK        -0.1936 
     42 C          27.2018    2.6606   -6.7965 C.2       6 UNK         0.5081 
     43 O          27.9449    3.5969   -7.0884 O.2       6 UNK        -0.5248 
     44 N          26.1352    2.3017   -7.5226 N.am      7 UNK        -0.4718 
     45 CA         25.7781    2.8940   -8.8088 C.3       7 UNK         0.0273 
     46 CB         24.2962    2.6134   -9.1105 C.3       7 UNK        -0.1935 
     47 C          26.6803    2.4022   -9.9548 C.2       7 UNK         0.5018 
     48 O          27.2354    3.2308  -10.6775 O.2       7 UNK        -0.5186 
     49 N          26.7770    1.0762  -10.1313 N.am      8 UNK        -0.4240 
     50 CA         27.4176    0.4539  -11.2927 C.3       8 UNK         0.0235 
     51 CB         26.8046   -0.9350  -11.5392 C.3       8 UNK        -0.2000 
     52 C          28.9450    0.3503  -11.1787 C.2       8 UNK         0.4941 
     53 O          29.6401    0.7048  -12.1321 O.2       8 UNK        -0.5273 
     54 N          29.4401   -0.1687  -10.0480 N.am      9 UNK        -0.4262 
     55 CA         30.8633   -0.4321   -9.8201 C.3       9 UNK         0.0264 
     56 CB         31.0303   -1.7282   -9.0058 C.3       9 UNK        -0.1955 
     57 C          31.5492    0.7367   -9.1045 C.2       9 UNK         0.5031 
     58 O          32.6953    1.0503   -9.4317 O.2       9 UNK        -0.5390 
     59 N          30.8520    1.3381   -8.1293 N.am      10 UNK        -0.4204 
     60 CA         31.2820    2.4074   -7.2174 C.3       10 UNK         0.0237 
     61 CB         31.6899    3.6890   -7.9710 C.3       10 UNK        -0.1985 
     62 C          32.3588    1.9576   -6.2148 C.2       10 UNK         0.4970 
     63 O          32.1401    2.1047   -5.0131 O.2       10 UNK        -0.4914 
     64 N          33.4622    1.4037   -6.7376 N.am      11 UNK        -0.4285 
     65 CA         34.5924    0.7514   -6.0558 C.3       11 UNK         0.1007 
     66 C          35.0519    1.4074   -4.7179 C.2       11 UNK         0.5703 
     67 N          35.2251    0.6497   -3.6425 N.am      11 UNK        -0.7361 
     68 O          35.3210    2.6065   -4.6741 O.2       11 UNK        -0.4986 
     69 C69        34.4679   -0.8020   -6.0610 C.3       12 UNK        -0.0947 
     70 S70        32.9881   -1.4622   -5.2264 S.3       12 UNK        -0.2240 
     71 C71        33.1916   -3.2351   -5.5640 C.3       12 UNK         0.0194 
     72 H72        30.7620    1.4007   -2.5408 H         1 UNK         0.0906 
     73 H73        31.4564    0.4091   -1.2552 H         1 UNK         0.0906 
     74 H74        32.0270    0.2331   -2.9160 H         1 UNK         0.0906 
     75 H75        30.2722   -1.4231   -0.7116 H         1 UNK         0.3140 
     76 H76        28.9785   -3.0608   -2.6876 H         1 UNK         0.1085 
     77 H77        28.8468   -3.3953    0.3436 H         1 UNK         0.0836 
     78 H78        28.5462   -4.6193   -0.8569 H         1 UNK         0.0836 
     79 H79        30.1762   -6.3312   -1.4820 H         1 UNK         0.0731 
     80 H80        31.9137   -6.1778   -1.5125 H         1 UNK         0.0731 
     81 H81        32.8909   -4.2396   -3.0477 H         1 UNK         0.1312 
     82 H82        30.8996   -3.9703   -6.8317 H         1 UNK         0.1406 
     83 H83        29.0165   -6.0133   -3.5638 H         1 UNK         0.1631 
     84 H84        28.4241   -6.3731   -6.2009 H         1 UNK         0.0717 
     85 H85        28.7989   -4.9897   -7.1989 H         1 UNK         0.0717 
     86 H86        27.3757   -2.3123   -4.5281 H         1 UNK         0.0934 
     87 H87        28.7428   -2.6516   -5.5276 H         1 UNK         0.0934 
     88 H88        27.3641   -2.2799   -7.5845 H         1 UNK         0.0739 
     89 H89        25.1482   -2.0479   -5.7421 H         1 UNK         0.3093 
     90 H90        22.9651   -0.3948   -8.0335 H         1 UNK         0.0818 
     91 H91        21.5782   -2.4438   -7.8807 H         1 UNK         0.0819 
     92 H92        22.9361   -2.7171   -8.9584 H         1 UNK         0.0819 
     93 H93        22.9691   -3.3807   -7.3308 H         1 UNK         0.0819 
     94 H94        22.3992   -1.6903   -5.5783 H         1 UNK         0.3041 
     95 H95        22.1272    1.1293   -3.8116 H         1 UNK         0.0784 
     96 H96        20.9157   -1.0333   -4.1668 H         1 UNK         0.0793 
     97 H97        22.2914   -1.9214   -3.5016 H         1 UNK         0.0793 
     98 H98        21.3712   -0.8181   -2.4916 H         1 UNK         0.0793 
     99 H99        23.6228    0.9884   -2.1624 H         1 UNK         0.3024 
    100 H100       25.9992    0.8662   -1.5310 H         1 UNK         0.1171 
    101 H101       24.1432    0.0563   -0.1348 H         1 UNK         0.0786 
    102 H102       24.6694   -1.6089   -0.2997 H         1 UNK         0.0786 
    103 H103       25.6506   -0.4535    0.5991 H         1 UNK         0.0786 
    104 H104       27.8820   -0.2723   -1.7365 H         1 UNK         0.2977 
    105 H105       26.3679    0.0753   -5.0837 H         1 UNK         0.3127 
    106 H106       28.5833    1.8409   -5.3826 H         1 UNK         0.0770 
    107 H107       25.7491    2.3795   -4.3540 H         1 UNK         0.0814 
    108 H108       27.1084    3.4813   -4.1864 H         1 UNK         0.0814 
    109 H109       27.1590    1.9185   -3.3928 H         1 UNK         0.0814 
    110 H110       25.5400    1.5616   -7.1698 H         1 UNK         0.2983 
    111 H111       25.9016    3.9768   -8.7326 H         1 UNK         0.0947 
    112 H112       23.9959    3.0770  -10.0511 H         1 UNK         0.0806 
    113 H113       23.6509    3.0158   -8.3293 H         1 UNK         0.0806 
    114 H114       24.0910    1.5461   -9.1935 H         1 UNK         0.0806 
    115 H115       26.2783    0.4509   -9.4994 H         1 UNK         0.3000 
    116 H116       27.1973    1.0647  -12.1713 H         1 UNK         0.0850 
    117 H117       27.2301   -1.3973  -12.4310 H         1 UNK         0.0810 
    118 H118       25.7268   -0.8711  -11.6894 H         1 UNK         0.0810 
    119 H119       26.9841   -1.6127  -10.7036 H         1 UNK         0.0810 
    120 H120       28.8163   -0.3494   -9.2673 H         1 UNK         0.3040 
    121 H121       31.3677   -0.5780  -10.7779 H         1 UNK         0.0766 
    122 H122       32.0861   -1.9649   -8.8666 H         1 UNK         0.0812 
    123 H123       30.5716   -2.5771   -9.5127 H         1 UNK         0.0812 
    124 H124       30.5866   -1.6506   -8.0127 H         1 UNK         0.0812 
    125 H125       29.9505    0.9212   -7.8975 H         1 UNK         0.3205 
    126 H126       30.4004    2.6552   -6.6276 H         1 UNK         0.0754 
    127 H127       31.9105    4.4948   -7.2699 H         1 UNK         0.0769 
    128 H128       30.8842    4.0352   -8.6188 H         1 UNK         0.0769 
    129 H129       32.5778    3.5449   -8.5867 H         1 UNK         0.0769 
    130 H130       33.4797    1.3420   -7.7521 H         1 UNK         0.2981 
    131 H131       35.4339    0.9617   -6.7170 H         1 UNK         0.0541 
    132 H132       34.9960   -0.3314   -3.6697 H         1 UNK         0.3459 
    133 H133       35.5470    1.0728   -2.7867 H         1 UNK         0.3459 
    134 H134       35.3573   -1.2632   -5.6287 H         1 UNK         0.0612 
    135 H135       34.4368   -1.1478   -7.0955 H         1 UNK         0.0612 
    136 H136       33.2734   -3.3920   -6.6407 H         1 UNK         0.0624 
    137 H137       34.1281   -3.5831   -5.1255 H         1 UNK         0.0624 
@<TRIPOS>BOND
     1    1    2 1    
     2    1   72 1    
     3    1   73 1    
     4    1   74 1    
     5    2    3 2    
     6    2    4 am   BACKBONE|DICT|INTERRES
     7    4    5 1    
     8    4   75 1    
     9    5    6 1    
    10    5   35 1    
    11    5   76 1    
    12    6    7 1    
    13    6   77 1    
    14    6   78 1    
    15    7    8 1    
    16    8    9 1    
    17    8   79 1    
    18    8   80 1    
    19    9   10 ar   
    20    9   14 ar   
    21   10   11 ar   
    22   10   81 1    
    23   11   12 ar   
    24   11   71 1    
    25   12   13 ar   
    26   12   82 1    
    27   13   14 ar   
    28   13   15 1    
    29   14   83 1    
    30   15   16 1    
    31   15   84 1    
    32   15   85 1    
    33   16   17 1    
    34   17   18 1    
    35   17   86 1    
    36   17   87 1    
    37   18   19 1    
    38   18   37 1    
    39   18   88 1    
    40   19   20 am   BACKBONE|DICT|INTERRES
    41   19   89 1    
    42   20   21 2    
    43   20   22 1    
    44   22   23 1    
    45   22   24 1    
    46   22   90 1    
    47   23   91 1    
    48   23   92 1    
    49   23   93 1    
    50   24   25 am   BACKBONE|DICT|INTERRES
    51   24   94 1    
    52   25   26 2    
    53   25   27 1    
    54   27   28 1    
    55   27   29 1    
    56   27   95 1    
    57   28   96 1    
    58   28   97 1    
    59   28   98 1    
    60   29   30 am   BACKBONE|DICT|INTERRES
    61   29   99 1    
    62   30   31 2    
    63   30   32 1    
    64   32   33 1    
    65   32   34 1    
    66   32  100 1    
    67   33  101 1    
    68   33  102 1    
    69   33  103 1    
    70   34   35 am   BACKBONE|DICT|INTERRES
    71   34  104 1    
    72   35   36 2    
    73   37   38 2    
    74   37   39 am   BACKBONE|DICT|INTERRES
    75   39   40 1    
    76   39  105 1    
    77   40   41 1    
    78   40   42 1    
    79   40  106 1    
    80   41  107 1    
    81   41  108 1    
    82   41  109 1    
    83   42   43 2    
    84   42   44 am   BACKBONE|DICT|INTERRES
    85   44   45 1    
    86   44  110 1    
    87   45   46 1    
    88   45   47 1    
    89   45  111 1    
    90   46  112 1    
    91   46  113 1    
    92   46  114 1    
    93   47   48 2    
    94   47   49 am   BACKBONE|DICT|INTERRES
    95   49   50 1    
    96   49  115 1    
    97   50   51 1    
    98   50   52 1    
    99   50  116 1    
   100   51  117 1    
   101   51  118 1    
   102   51  119 1    
   103   52   53 2    
   104   52   54 am   BACKBONE|DICT|INTERRES
   105   54   55 1    
   106   54  120 1    
   107   55   56 1    
   108   55   57 1    
   109   55  121 1    
   110   56  122 1    
   111   56  123 1    
   112   56  124 1    
   113   57   58 2    
   114   57   59 am   BACKBONE|DICT|INTERRES
   115   59   60 1    
   116   59  125 1    
   117   60   61 1    
   118   60   62 1    
   119   60  126 1    
   120   61  127 1    
   121   61  128 1    
   122   61  129 1    
   123   62   63 2    
   124   62   64 am   BACKBONE|DICT|INTERRES
   125   64   65 1    
   126   64  130 1    
   127   65   66 1    
   128   65   69 1    
   129   65  131 1    
   130   66   67 am   BACKBONE|DICT|INTERRES
   131   66   68 2    
   132   67  132 1    
   133   67  133 1    
   134   69   70 1    
   135   69  134 1    
   136   69  135 1    
   137   70   71 1    
   138   71  136 1    
   139   71  137 1    
@<TRIPOS>SUBSTRUCTURE
     1 UNK         1 GROUP             0       ****    0 ROOT    
