@<TRIPOS>MOLECULE
3R137
137   139    1
SMALL
USER_CHARGES


@<TRIPOS>ATOM
      1 CA         24.9756   -5.5847   -6.0258 C.3       0 UNK        -0.2020 
      2 C          25.5129   -5.0679   -4.7003 C.2       0 UNK         0.4855 
      3 O          24.7401   -4.5611   -3.8864 O.2       0 UNK        -0.5197 
      4 N          26.8314   -5.1793   -4.4817 N.am      1 UNK        -0.4892 
      5 CA         27.5359   -4.7271   -3.2741 C.3       1 UNK         0.0835 
      6 C6         29.0479   -5.0851   -3.3180 C.3       12 UNK        -0.0855 
      7 S7         29.6805   -5.7262   -1.7315 S.3       12 UNK        -0.2931 
      8 C8         29.9387   -4.2183   -0.7310 C.3       12 UNK         0.0378 
      9 C9         30.8761   -3.1810   -1.3467 C.ar      12 UNK        -0.0802 
     10 C10        32.0496   -3.5562   -2.0119 C.ar      12 UNK        -0.0944 
     11 C11        32.9082   -2.5889   -2.5438 C.ar      12 UNK        -0.0787 
     12 C12        32.6002   -1.2346   -2.3863 C.ar      12 UNK        -0.0862 
     13 C13        31.4386   -0.8430   -1.7152 C.ar      12 UNK        -0.0733 
     14 C14        30.5808   -1.8211   -1.2014 C.ar      12 UNK        -0.0832 
     15 C15        31.1200    0.6361   -1.5258 C.3       12 UNK         0.0240 
     16 S16        30.7218    1.4835   -3.0897 S.3       12 UNK        -0.2522 
     17 C17        29.2298    0.5814   -3.6165 C.3       12 UNK        -0.0967 
     18 CA         28.8349    0.8480   -5.0904 C.3       5 UNK         0.0660 
     19 N          27.9743   -0.2175   -5.6065 N.am      5 UNK        -0.4015 
     20 C          27.5390   -0.3400   -6.8670 C.2       4 UNK         0.4946 
     21 O          27.9038    0.3775   -7.7967 O.2       4 UNK        -0.5353 
     22 CA         26.4798   -1.4204   -7.1322 C.3       4 UNK         0.0277 
     23 CB         27.1366   -2.7713   -7.4472 C.3       4 UNK        -0.1981 
     24 N          25.5421   -1.5602   -6.0158 N.am      4 UNK        -0.4209 
     25 C          24.6187   -0.6421   -5.6948 C.2       3 UNK         0.4942 
     26 O          24.4352    0.3950   -6.3309 O.2       3 UNK        -0.5208 
     27 CA         23.7932   -0.9039   -4.4256 C.3       3 UNK         0.0250 
     28 CB         22.6314   -1.8665   -4.7179 C.3       3 UNK        -0.1990 
     29 N          24.6129   -1.4246   -3.3285 N.am      3 UNK        -0.4232 
     30 C          25.5420   -0.7001   -2.6862 C.2       2 UNK         0.4993 
     31 O          25.7762    0.4826   -2.9347 O.2       2 UNK        -0.5286 
     32 CA         26.3953   -1.4221   -1.6272 C.3       2 UNK         0.0209 
     33 CB         25.7189   -1.3546   -0.2495 C.3       2 UNK        -0.1931 
     34 N          26.7011   -2.8187   -1.9561 N.am      2 UNK        -0.4546 
     35 C          27.3367   -3.2139   -3.0679 C.2       1 UNK         0.5154 
     36 O          27.7251   -2.4378   -3.9417 O.2       1 UNK        -0.5181 
     37 C          28.1807    2.2323   -5.2738 C.2       5 UNK         0.5014 
     38 O          28.7981    3.1206   -5.8627 O.2       5 UNK        -0.5248 
     39 N          26.9260    2.3748   -4.8162 N.am      6 UNK        -0.4434 
     40 CA         26.1179    3.5908   -4.9542 C.3       6 UNK         0.0363 
     41 CB         24.8030    3.4257   -4.1761 C.3       6 UNK        -0.1936 
     42 C          25.8355    3.9781   -6.4167 C.2       6 UNK         0.5081 
     43 O          25.8732    5.1639   -6.7458 O.2       6 UNK        -0.5248 
     44 N          25.5804    2.9778   -7.2707 N.am      7 UNK        -0.4718 
     45 CA         25.3734    3.1480   -8.7122 C.3       7 UNK         0.0273 
     46 CB         24.6794    1.8912   -9.2635 C.3       7 UNK        -0.1935 
     47 C          26.6668    3.4235   -9.5035 C.2       7 UNK         0.5018 
     48 O          26.5723    3.8245  -10.6643 O.2       7 UNK        -0.5186 
     49 N          27.8338    3.1707   -8.8892 N.am      8 UNK        -0.4240 
     50 CA         29.1763    3.1587   -9.4870 C.3       8 UNK         0.0235 
     51 CB         29.6022    4.5732   -9.9340 C.3       8 UNK        -0.2000 
     52 C          29.3121    2.0992  -10.6019 C.2       8 UNK         0.4941 
     53 O          29.9793    2.3378  -11.6103 O.2       8 UNK        -0.5273 
     54 N          28.6614    0.9476  -10.3949 N.am      9 UNK        -0.4262 
     55 CA         28.6097   -0.1883  -11.3163 C.3       9 UNK         0.0264 
     56 CB         27.1853   -0.7688  -11.2901 C.3       9 UNK        -0.1955 
     57 C          29.6388   -1.2783  -10.9684 C.2       9 UNK         0.5031 
     58 O          29.8404   -2.1870  -11.7759 O.2       9 UNK        -0.5390 
     59 N          30.2622   -1.1833   -9.7889 N.am      10 UNK        -0.4204 
     60 CA         31.3008   -2.0846   -9.2948 C.3       10 UNK         0.0237 
     61 CB         30.6624   -3.1741   -8.4065 C.3       10 UNK        -0.1985 
     62 C          32.3787   -1.2588   -8.5743 C.2       10 UNK         0.4970 
     63 O          32.5363   -0.0714   -8.8706 O.2       10 UNK        -0.4914 
     64 N          33.1076   -1.9016   -7.6547 N.am      11 UNK        -0.4285 
     65 CA         34.0957   -1.2847   -6.7581 C.3       11 UNK         0.1007 
     66 C          33.5101   -0.1797   -5.8320 C.2       11 UNK         0.5703 
     67 N          34.3613    0.6538   -5.2478 N.am      11 UNK        -0.7361 
     68 O          32.3040   -0.0793   -5.6272 O.2       11 UNK        -0.4986 
     69 C69        34.8798   -2.3667   -5.9656 C.3       12 UNK        -0.0947 
     70 S70        33.8227   -3.5001   -4.9911 S.3       12 UNK        -0.2240 
     71 C71        34.1759   -3.0097   -3.2717 C.3       12 UNK         0.0194 
     72 H72        24.4410   -4.7924   -6.5491 H         1 UNK         0.0906 
     73 H73        25.7710   -5.9461   -6.6772 H         1 UNK         0.0906 
     74 H74        24.2801   -6.4053   -5.8518 H         1 UNK         0.0906 
     75 H75        27.4144   -5.5888   -5.1975 H         1 UNK         0.3140 
     76 H76        27.0688   -5.2558   -2.4402 H         1 UNK         0.1085 
     77 H77        29.6717   -4.2580   -3.6652 H         1 UNK         0.0836 
     78 H78        29.2230   -5.8823   -4.0420 H         1 UNK         0.0836 
     79 H79        30.3512   -4.5166    0.2336 H         1 UNK         0.0731 
     80 H80        28.9657   -3.7758   -0.5161 H         1 UNK         0.0731 
     81 H81        32.2960   -4.6034   -2.1217 H         1 UNK         0.1312 
     82 H82        33.2613   -0.4803   -2.7900 H         1 UNK         0.1406 
     83 H83        29.6856   -1.5212   -0.6740 H         1 UNK         0.1631 
     84 H84        31.9802    1.1289   -1.0706 H         1 UNK         0.0717 
     85 H85        30.2899    0.7701   -0.8305 H         1 UNK         0.0717 
     86 H86        29.4384   -0.4818   -3.4961 H         1 UNK         0.0934 
     87 H87        28.4149    0.8115   -2.9298 H         1 UNK         0.0934 
     88 H88        29.7415    0.8283   -5.6989 H         1 UNK         0.0739 
     89 H89        27.7000   -0.9342   -4.9372 H         1 UNK         0.3093 
     90 H90        25.9086   -1.1128   -8.0103 H         1 UNK         0.0818 
     91 H91        27.7884   -2.6832   -8.3163 H         1 UNK         0.0819 
     92 H92        27.7412   -3.1365   -6.6162 H         1 UNK         0.0819 
     93 H93        26.3914   -3.5291   -7.6856 H         1 UNK         0.0819 
     94 H94        25.6707   -2.3505   -5.4007 H         1 UNK         0.3041 
     95 H95        23.3684    0.0502   -4.1054 H         1 UNK         0.0784 
     96 H96        21.9876   -1.4701   -5.5043 H         1 UNK         0.0793 
     97 H97        22.9840   -2.8438   -5.0486 H         1 UNK         0.0793 
     98 H98        22.0090   -2.0161   -3.8355 H         1 UNK         0.0793 
     99 H99        24.5147   -2.4079   -3.1046 H         1 UNK         0.3024 
    100 H100       27.3447   -0.8876   -1.5643 H         1 UNK         0.1171 
    101 H101       24.7762   -1.9030   -0.2341 H         1 UNK         0.0786 
    102 H102       26.3610   -1.7665    0.5294 H         1 UNK         0.0786 
    103 H103       25.4999   -0.3221    0.0271 H         1 UNK         0.0786 
    104 H104       26.3729   -3.5183   -1.3055 H         1 UNK         0.2977 
    105 H105       26.4972    1.6059   -4.3048 H         1 UNK         0.3127 
    106 H106       26.6807    4.4097   -4.5014 H         1 UNK         0.0770 
    107 H107       24.2105    2.5937   -4.5585 H         1 UNK         0.0814 
    108 H108       24.1899    4.3250   -4.2479 H         1 UNK         0.0814 
    109 H109       24.9890    3.2435   -3.1175 H         1 UNK         0.0814 
    110 H110       25.4867    2.0346   -6.9049 H         1 UNK         0.2983 
    111 H111       24.7102    4.0018   -8.8672 H         1 UNK         0.0947 
    112 H112       25.3002    1.0036   -9.1381 H         1 UNK         0.0806 
    113 H113       24.4681    1.9935  -10.3288 H         1 UNK         0.0806 
    114 H114       23.7292    1.7090   -8.7611 H         1 UNK         0.0806 
    115 H115       27.7894    2.8349   -7.9342 H         1 UNK         0.3000 
    116 H116       29.8547    2.8467   -8.6910 H         1 UNK         0.0850 
    117 H117       30.6471    4.5849  -10.2461 H         1 UNK         0.0810 
    118 H118       29.4990    5.2924   -9.1215 H         1 UNK         0.0810 
    119 H119       29.0087    4.9296  -10.7764 H         1 UNK         0.0810 
    120 H120       28.1983    0.8208   -9.4940 H         1 UNK         0.3040 
    121 H121       28.8220    0.1518  -12.3321 H         1 UNK         0.0766 
    122 H122       27.0869   -1.5972  -11.9929 H         1 UNK         0.0812 
    123 H123       26.4466   -0.0174  -11.5700 H         1 UNK         0.0812 
    124 H124       26.9217   -1.1461  -10.3019 H         1 UNK         0.0812 
    125 H125       30.0853   -0.3681   -9.2169 H         1 UNK         0.3205 
    126 H126       31.7969   -2.5674  -10.1393 H         1 UNK         0.0754 
    127 H127       31.3883   -3.9329   -8.1127 H         1 UNK         0.0769 
    128 H128       29.8684   -3.6975   -8.9390 H         1 UNK         0.0769 
    129 H129       30.2355   -2.7513   -7.4957 H         1 UNK         0.0769 
    130 H130       32.8892   -2.8651   -7.4512 H         1 UNK         0.2981 
    131 H131       34.8112   -0.7784   -7.4087 H         1 UNK         0.0541 
    132 H132       33.9946    1.3771   -4.6500 H         1 UNK         0.3459 
    133 H133       35.3541    0.5892   -5.4080 H         1 UNK         0.3459 
    134 H134       35.4393   -2.9832   -6.6706 H         1 UNK         0.0612 
    135 H135       35.6395   -1.9097   -5.3305 H         1 UNK         0.0612 
    136 H136       34.9099   -2.2040   -3.2376 H         1 UNK         0.0624 
    137 H137       34.6328   -3.8544   -2.7540 H         1 UNK         0.0624 
@<TRIPOS>BOND
     1    1    2 1    
     2    1   72 1    
     3    1   73 1    
     4    1   74 1    
     5    2    3 2    
     6    2    4 am   BACKBONE|DICT|INTERRES
     7    4    5 1    
     8    4   75 1    
     9    5    6 1    
    10    5   35 1    
    11    5   76 1    
    12    6    7 1    
    13    6   77 1    
    14    6   78 1    
    15    7    8 1    
    16    8    9 1    
    17    8   79 1    
    18    8   80 1    
    19    9   10 ar   
    20    9   14 ar   
    21   10   11 ar   
    22   10   81 1    
    23   11   12 ar   
    24   11   71 1    
    25   12   13 ar   
    26   12   82 1    
    27   13   14 ar   
    28   13   15 1    
    29   14   83 1    
    30   15   16 1    
    31   15   84 1    
    32   15   85 1    
    33   16   17 1    
    34   17   18 1    
    35   17   86 1    
    36   17   87 1    
    37   18   19 1    
    38   18   37 1    
    39   18   88 1    
    40   19   20 am   BACKBONE|DICT|INTERRES
    41   19   89 1    
    42   20   21 2    
    43   20   22 1    
    44   22   23 1    
    45   22   24 1    
    46   22   90 1    
    47   23   91 1    
    48   23   92 1    
    49   23   93 1    
    50   24   25 am   BACKBONE|DICT|INTERRES
    51   24   94 1    
    52   25   26 2    
    53   25   27 1    
    54   27   28 1    
    55   27   29 1    
    56   27   95 1    
    57   28   96 1    
    58   28   97 1    
    59   28   98 1    
    60   29   30 am   BACKBONE|DICT|INTERRES
    61   29   99 1    
    62   30   31 2    
    63   30   32 1    
    64   32   33 1    
    65   32   34 1    
    66   32  100 1    
    67   33  101 1    
    68   33  102 1    
    69   33  103 1    
    70   34   35 am   BACKBONE|DICT|INTERRES
    71   34  104 1    
    72   35   36 2    
    73   37   38 2    
    74   37   39 am   BACKBONE|DICT|INTERRES
    75   39   40 1    
    76   39  105 1    
    77   40   41 1    
    78   40   42 1    
    79   40  106 1    
    80   41  107 1    
    81   41  108 1    
    82   41  109 1    
    83   42   43 2    
    84   42   44 am   BACKBONE|DICT|INTERRES
    85   44   45 1    
    86   44  110 1    
    87   45   46 1    
    88   45   47 1    
    89   45  111 1    
    90   46  112 1    
    91   46  113 1    
    92   46  114 1    
    93   47   48 2    
    94   47   49 am   BACKBONE|DICT|INTERRES
    95   49   50 1    
    96   49  115 1    
    97   50   51 1    
    98   50   52 1    
    99   50  116 1    
   100   51  117 1    
   101   51  118 1    
   102   51  119 1    
   103   52   53 2    
   104   52   54 am   BACKBONE|DICT|INTERRES
   105   54   55 1    
   106   54  120 1    
   107   55   56 1    
   108   55   57 1    
   109   55  121 1    
   110   56  122 1    
   111   56  123 1    
   112   56  124 1    
   113   57   58 2    
   114   57   59 am   BACKBONE|DICT|INTERRES
   115   59   60 1    
   116   59  125 1    
   117   60   61 1    
   118   60   62 1    
   119   60  126 1    
   120   61  127 1    
   121   61  128 1    
   122   61  129 1    
   123   62   63 2    
   124   62   64 am   BACKBONE|DICT|INTERRES
   125   64   65 1    
   126   64  130 1    
   127   65   66 1    
   128   65   69 1    
   129   65  131 1    
   130   66   67 am   BACKBONE|DICT|INTERRES
   131   66   68 2    
   132   67  132 1    
   133   67  133 1    
   134   69   70 1    
   135   69  134 1    
   136   69  135 1    
   137   70   71 1    
   138   71  136 1    
   139   71  137 1    
@<TRIPOS>SUBSTRUCTURE
     1 UNK         1 GROUP             0       ****    0 ROOT    
