@<TRIPOS>MOLECULE
3R137
137   139    1
SMALL
USER_CHARGES


@<TRIPOS>ATOM
      1 CA         23.0683   -5.5412   -3.5416 C.3       0 UNK        -0.2020 
      2 C          24.2679   -5.4134   -2.6143 C.2       0 UNK         0.4855 
      3 O          24.3737   -6.1602   -1.6412 O.2       0 UNK        -0.5197 
      4 N          25.1709   -4.4736   -2.9079 N.am      1 UNK        -0.4892 
      5 CA         26.3737   -4.1766   -2.1340 C.3       1 UNK         0.0835 
      6 C6         27.5338   -5.1457   -2.4883 C.3       12 UNK        -0.0855 
      7 S7         28.8637   -5.1593   -1.2349 S.3       12 UNK        -0.2931 
      8 C8         30.3652   -5.3509   -2.2548 C.3       12 UNK         0.0378 
      9 C9         30.6376   -4.1234   -3.1129 C.ar      12 UNK        -0.0802 
     10 C10        31.0935   -2.9417   -2.5243 C.ar      12 UNK        -0.0944 
     11 C11        31.2985   -1.7919   -3.2935 C.ar      12 UNK        -0.0787 
     12 C12        31.0340   -1.8343   -4.6681 C.ar      12 UNK        -0.0862 
     13 C13        30.6126   -3.0226   -5.2777 C.ar      12 UNK        -0.0733 
     14 C14        30.4303   -4.1664   -4.4935 C.ar      12 UNK        -0.0832 
     15 C15        30.3453   -3.0592   -6.7814 C.3       12 UNK         0.0240 
     16 S16        28.7862   -3.8912   -7.2472 S.3       12 UNK        -0.2522 
     17 C17        27.5668   -3.0415   -6.1908 C.3       12 UNK        -0.0967 
     18 CA         26.8207   -1.8873   -6.8965 C.3       5 UNK         0.0660 
     19 N          25.6157   -1.5099   -6.1580 N.am      5 UNK        -0.4015 
     20 C          24.5760   -0.8543   -6.6922 C.2       4 UNK         0.4946 
     21 O          24.4912   -0.5557   -7.8833 O.2       4 UNK        -0.5353 
     22 CA         23.4456   -0.4440   -5.7326 C.3       4 UNK         0.0277 
     23 CB         22.4481   -1.5992   -5.5479 C.3       4 UNK        -0.1981 
     24 N          23.9234    0.0041   -4.4206 N.am      4 UNK        -0.4209 
     25 C          24.6752    1.0957   -4.2154 C.2       3 UNK         0.4942 
     26 O          25.0819    1.8290   -5.1153 O.2       3 UNK        -0.5208 
     27 CA         25.1032    1.3675   -2.7717 C.3       3 UNK         0.0250 
     28 CB         23.9172    1.4190   -1.7897 C.3       3 UNK        -0.1990 
     29 N          26.0479    0.3260   -2.3918 N.am      3 UNK        -0.4232 
     30 C          27.0842    0.4514   -1.5636 C.2       2 UNK         0.4993 
     31 O          27.3027    1.4691   -0.9044 O.2       2 UNK        -0.5286 
     32 CA         28.0580   -0.7486   -1.4855 C.3       2 UNK         0.0209 
     33 CB         29.0304   -0.6236   -0.2966 C.3       2 UNK        -0.1931 
     34 N          27.4448   -2.0847   -1.4393 N.am      2 UNK        -0.4546 
     35 C          26.7321   -2.7023   -2.3913 C.2       1 UNK         0.5154 
     36 O          26.3566   -2.1582   -3.4385 O.2       1 UNK        -0.5181 
     37 C          27.7271   -0.6608   -7.1099 C.2       5 UNK         0.5014 
     38 O          28.2138   -0.4580   -8.2209 O.2       5 UNK        -0.5248 
     39 N          27.9054    0.1578   -6.0604 N.am      6 UNK        -0.4434 
     40 CA         28.7259    1.3766   -6.0690 C.3       6 UNK         0.0363 
     41 CB         28.7745    1.9677   -4.6516 C.3       6 UNK        -0.1936 
     42 C          28.2600    2.4404   -7.0814 C.2       6 UNK         0.5081 
     43 O          29.0759    3.2232   -7.5648 O.2       6 UNK        -0.5248 
     44 N          26.9642    2.4366   -7.4139 N.am      7 UNK        -0.4718 
     45 CA         26.3800    3.2475   -8.4814 C.3       7 UNK         0.0273 
     46 CB         24.8503    3.2340   -8.3249 C.3       7 UNK        -0.1935 
     47 C          26.7789    2.7956   -9.9023 C.2       7 UNK         0.5018 
     48 O          26.5670    3.5670  -10.8395 O.2       7 UNK        -0.5186 
     49 N          27.3090    1.5721  -10.0545 N.am      8 UNK        -0.4240 
     50 CA         27.5937    0.9431  -11.3447 C.3       8 UNK         0.0235 
     51 CB         26.7278   -0.3214  -11.4809 C.3       8 UNK        -0.2000 
     52 C          29.0757    0.5887  -11.5435 C.2       8 UNK         0.4941 
     53 O          29.5621    0.7311  -12.6670 O.2       8 UNK        -0.5273 
     54 N          29.7633    0.1005  -10.5019 N.am      9 UNK        -0.4262 
     55 CA         31.0978   -0.4945  -10.6126 C.3       9 UNK         0.0264 
     56 CB         30.9416   -1.9872  -10.9697 C.3       9 UNK        -0.1955 
     57 C          31.9092   -0.3288   -9.3207 C.2       9 UNK         0.5031 
     58 O          31.3679    0.1009   -8.2994 O.2       9 UNK        -0.5390 
     59 N          33.1957   -0.7073   -9.4011 N.am      10 UNK        -0.4204 
     60 CA         34.1970   -0.7906   -8.3289 C.3       10 UNK         0.0237 
     61 CB         33.9162   -2.0099   -7.4235 C.3       10 UNK        -0.1985 
     62 C          34.3447    0.5251   -7.5461 C.2       10 UNK         0.4970 
     63 O          35.0937    1.4027   -7.9771 O.2       10 UNK        -0.4914 
     64 N          33.6192    0.6320   -6.4277 N.am      11 UNK        -0.4285 
     65 CA         33.4767    1.8378   -5.6018 C.3       11 UNK         0.1007 
     66 C          32.8520    3.0535   -6.3459 C.2       11 UNK         0.5703 
     67 N          32.0875    2.8446   -7.4100 N.am      11 UNK        -0.7361 
     68 O          33.0606    4.1952   -5.9426 O.2       11 UNK        -0.4986 
     69 C69        32.6605    1.5462   -4.3164 C.3       12 UNK        -0.0947 
     70 S70        33.3085    0.1590   -3.3237 S.3       12 UNK        -0.2240 
     71 C71        31.7685   -0.5094   -2.6135 C.3       12 UNK         0.0194 
     72 H72        22.1578   -5.2462   -3.0207 H         1 UNK         0.0906 
     73 H73        23.1707   -4.9188   -4.4301 H         1 UNK         0.0906 
     74 H74        22.9546   -6.5748   -3.8675 H         1 UNK         0.0906 
     75 H75        25.0309   -3.8449   -3.6879 H         1 UNK         0.3140 
     76 H76        26.1267   -4.2789   -1.0745 H         1 UNK         0.1085 
     77 H77        27.1577   -6.1681   -2.5503 H         1 UNK         0.0836 
     78 H78        27.9333   -4.9219   -3.4782 H         1 UNK         0.0836 
     79 H79        30.2696   -6.2462   -2.8713 H         1 UNK         0.0731 
     80 H80        31.2182   -5.5240   -1.5970 H         1 UNK         0.0731 
     81 H81        31.2700   -2.9183   -1.4578 H         1 UNK         0.1312 
     82 H82        31.1620   -0.9434   -5.2659 H         1 UNK         0.1406 
     83 H83        30.0961   -5.0845   -4.9573 H         1 UNK         0.1631 
     84 H84        31.1701   -3.5757   -7.2731 H         1 UNK         0.0717 
     85 H85        30.3286   -2.0494   -7.1903 H         1 UNK         0.0717 
     86 H86        26.8490   -3.8033   -5.8825 H         1 UNK         0.0934 
     87 H87        28.0340   -2.6984   -5.2686 H         1 UNK         0.0934 
     88 H88        26.5092   -2.2418   -7.8820 H         1 UNK         0.0739 
     89 H89        25.6225   -1.7121   -5.1637 H         1 UNK         0.3093 
     90 H90        22.9162    0.3928   -6.1939 H         1 UNK         0.0818 
     91 H91        21.5869   -1.2889   -4.9557 H         1 UNK         0.0819 
     92 H92        22.0680   -1.9438   -6.5108 H         1 UNK         0.0819 
     93 H93        22.9055   -2.4559   -5.0526 H         1 UNK         0.0819 
     94 H94        23.6327   -0.5410   -3.6221 H         1 UNK         0.3041 
     95 H95        25.6074    2.3366   -2.7585 H         1 UNK         0.0784 
     96 H96        23.1656    2.1366   -2.1215 H         1 UNK         0.0793 
     97 H97        23.4263    0.4516   -1.6811 H         1 UNK         0.0793 
     98 H98        24.2466    1.7323   -0.7988 H         1 UNK         0.0793 
     99 H99        25.9755   -0.5596   -2.8905 H         1 UNK         0.3024 
    100 H100       28.6506   -0.7105   -2.4013 H         1 UNK         0.1171 
    101 H101       29.7460   -1.4448   -0.2750 H         1 UNK         0.0786 
    102 H102       29.6069    0.3009   -0.3519 H         1 UNK         0.0786 
    103 H103       28.4989   -0.6199    0.6558 H         1 UNK         0.0786 
    104 H104       27.6815   -2.6308   -0.6229 H         1 UNK         0.2977 
    105 H105       27.4405   -0.0670   -5.1949 H         1 UNK         0.3127 
    106 H106       29.7383    1.0844   -6.3546 H         1 UNK         0.0770 
    107 H107       27.7870    2.2808   -4.3110 H         1 UNK         0.0814 
    108 H108       29.4216    2.8456   -4.6202 H         1 UNK         0.0814 
    109 H109       29.1684    1.2511   -3.9329 H         1 UNK         0.0814 
    110 H110       26.3351    1.8283   -6.9028 H         1 UNK         0.2983 
    111 H111       26.7286    4.2753   -8.3589 H         1 UNK         0.0947 
    112 H112       24.3724    3.8601   -9.0796 H         1 UNK         0.0806 
    113 H113       24.5479    3.6153   -7.3493 H         1 UNK         0.0806 
    114 H114       24.4448    2.2269   -8.4305 H         1 UNK         0.0806 
    115 H115       27.4931    1.0058   -9.2310 H         1 UNK         0.3000 
    116 H116       27.3215    1.6159  -12.1607 H         1 UNK         0.0850 
    117 H117       26.9056   -0.8178  -12.4359 H         1 UNK         0.0810 
    118 H118       25.6658   -0.0801  -11.4330 H         1 UNK         0.0810 
    119 H119       26.9411   -1.0437  -10.6915 H         1 UNK         0.0810 
    120 H120       29.3216    0.0113   -9.5863 H         1 UNK         0.3040 
    121 H121       31.6560    0.0099  -11.4043 H         1 UNK         0.0766 
    122 H122       30.3958   -2.5261  -10.1935 H         1 UNK         0.0812 
    123 H123       31.9073   -2.4788  -11.0912 H         1 UNK         0.0812 
    124 H124       30.4001   -2.1170  -11.9069 H         1 UNK         0.0812 
    125 H125       33.5330   -0.9949  -10.3093 H         1 UNK         0.3205 
    126 H126       35.1575   -0.9643   -8.8169 H         1 UNK         0.0754 
    127 H127       33.9486   -2.9378   -7.9946 H         1 UNK         0.0769 
    128 H128       32.9395   -1.9527   -6.9474 H         1 UNK         0.0769 
    129 H129       34.6631   -2.0932   -6.6325 H         1 UNK         0.0769 
    130 H130       33.0231   -0.1410   -6.1795 H         1 UNK         0.2981 
    131 H131       34.4828    2.1368   -5.3027 H         1 UNK         0.0541 
    132 H132       31.8761    1.8987   -7.7120 H         1 UNK         0.3459 
    133 H133       31.6350    3.6242   -7.8594 H         1 UNK         0.3459 
    134 H134       31.6248    1.3353   -4.5844 H         1 UNK         0.0612 
    135 H135       32.6350    2.4270   -3.6720 H         1 UNK         0.0612 
    136 H136       31.9536   -0.6915   -1.5539 H         1 UNK         0.0624 
    137 H137       30.9754    0.2370   -2.6496 H         1 UNK         0.0624 
@<TRIPOS>BOND
     1    1    2 1    
     2    1   72 1    
     3    1   73 1    
     4    1   74 1    
     5    2    3 2    
     6    2    4 am   BACKBONE|DICT|INTERRES
     7    4    5 1    
     8    4   75 1    
     9    5    6 1    
    10    5   35 1    
    11    5   76 1    
    12    6    7 1    
    13    6   77 1    
    14    6   78 1    
    15    7    8 1    
    16    8    9 1    
    17    8   79 1    
    18    8   80 1    
    19    9   10 ar   
    20    9   14 ar   
    21   10   11 ar   
    22   10   81 1    
    23   11   12 ar   
    24   11   71 1    
    25   12   13 ar   
    26   12   82 1    
    27   13   14 ar   
    28   13   15 1    
    29   14   83 1    
    30   15   16 1    
    31   15   84 1    
    32   15   85 1    
    33   16   17 1    
    34   17   18 1    
    35   17   86 1    
    36   17   87 1    
    37   18   19 1    
    38   18   37 1    
    39   18   88 1    
    40   19   20 am   BACKBONE|DICT|INTERRES
    41   19   89 1    
    42   20   21 2    
    43   20   22 1    
    44   22   23 1    
    45   22   24 1    
    46   22   90 1    
    47   23   91 1    
    48   23   92 1    
    49   23   93 1    
    50   24   25 am   BACKBONE|DICT|INTERRES
    51   24   94 1    
    52   25   26 2    
    53   25   27 1    
    54   27   28 1    
    55   27   29 1    
    56   27   95 1    
    57   28   96 1    
    58   28   97 1    
    59   28   98 1    
    60   29   30 am   BACKBONE|DICT|INTERRES
    61   29   99 1    
    62   30   31 2    
    63   30   32 1    
    64   32   33 1    
    65   32   34 1    
    66   32  100 1    
    67   33  101 1    
    68   33  102 1    
    69   33  103 1    
    70   34   35 am   BACKBONE|DICT|INTERRES
    71   34  104 1    
    72   35   36 2    
    73   37   38 2    
    74   37   39 am   BACKBONE|DICT|INTERRES
    75   39   40 1    
    76   39  105 1    
    77   40   41 1    
    78   40   42 1    
    79   40  106 1    
    80   41  107 1    
    81   41  108 1    
    82   41  109 1    
    83   42   43 2    
    84   42   44 am   BACKBONE|DICT|INTERRES
    85   44   45 1    
    86   44  110 1    
    87   45   46 1    
    88   45   47 1    
    89   45  111 1    
    90   46  112 1    
    91   46  113 1    
    92   46  114 1    
    93   47   48 2    
    94   47   49 am   BACKBONE|DICT|INTERRES
    95   49   50 1    
    96   49  115 1    
    97   50   51 1    
    98   50   52 1    
    99   50  116 1    
   100   51  117 1    
   101   51  118 1    
   102   51  119 1    
   103   52   53 2    
   104   52   54 am   BACKBONE|DICT|INTERRES
   105   54   55 1    
   106   54  120 1    
   107   55   56 1    
   108   55   57 1    
   109   55  121 1    
   110   56  122 1    
   111   56  123 1    
   112   56  124 1    
   113   57   58 2    
   114   57   59 am   BACKBONE|DICT|INTERRES
   115   59   60 1    
   116   59  125 1    
   117   60   61 1    
   118   60   62 1    
   119   60  126 1    
   120   61  127 1    
   121   61  128 1    
   122   61  129 1    
   123   62   63 2    
   124   62   64 am   BACKBONE|DICT|INTERRES
   125   64   65 1    
   126   64  130 1    
   127   65   66 1    
   128   65   69 1    
   129   65  131 1    
   130   66   67 am   BACKBONE|DICT|INTERRES
   131   66   68 2    
   132   67  132 1    
   133   67  133 1    
   134   69   70 1    
   135   69  134 1    
   136   69  135 1    
   137   70   71 1    
   138   71  136 1    
   139   71  137 1    
@<TRIPOS>SUBSTRUCTURE
     1 UNK         1 GROUP             0       ****    0 ROOT    
