@<TRIPOS>MOLECULE
3R137
137   139    1
SMALL
USER_CHARGES


@<TRIPOS>ATOM
      1 CA         30.3011    2.7427   -1.0481 C.3       0 UNK        -0.2020 
      2 C          29.4077    1.6116   -1.5337 C.2       0 UNK         0.4855 
      3 O          28.8421    1.7041   -2.6222 O.2       0 UNK        -0.5197 
      4 N          29.2684    0.5528   -0.7281 N.am      1 UNK        -0.4892 
      5 CA         28.4135   -0.6027   -0.9916 C.3       1 UNK         0.0835 
      6 C6         29.2543   -1.9024   -1.0836 C.3       12 UNK        -0.0855 
      7 S7         28.2544   -3.3575   -1.5438 S.3       12 UNK        -0.2931 
      8 C8         29.5502   -4.5648   -1.9631 C.3       12 UNK         0.0378 
      9 C9         29.8435   -4.5860   -3.4562 C.ar      12 UNK        -0.0802 
     10 C10        31.0205   -4.0280   -3.9671 C.ar      12 UNK        -0.0944 
     11 C11        31.3020   -4.1000   -5.3363 C.ar      12 UNK        -0.0787 
     12 C12        30.3832   -4.7114   -6.1984 C.ar      12 UNK        -0.0862 
     13 C13        29.2064   -5.2779   -5.6971 C.ar      12 UNK        -0.0733 
     14 C14        28.9440   -5.2093   -4.3261 C.ar      12 UNK        -0.0832 
     15 C15        28.2545   -6.0412   -6.6090 C.3       12 UNK         0.0240 
     16 S16        26.6492   -5.2012   -6.8096 S.3       12 UNK        -0.2522 
     17 C17        26.7546   -4.5195   -8.5057 C.3       12 UNK        -0.0967 
     18 CA         26.4559   -3.0027   -8.6007 C.3       5 UNK         0.0660 
     19 N          25.1987   -2.6357   -7.9437 N.am      5 UNK        -0.4015 
     20 C          24.5958   -1.4435   -8.0480 C.2       4 UNK         0.4946 
     21 O          24.9973   -0.5304   -8.7695 O.2       4 UNK        -0.5353 
     22 CA         23.3646   -1.2157   -7.1531 C.3       4 UNK         0.0277 
     23 CB         22.1010   -1.7940   -7.8100 C.3       4 UNK        -0.1981 
     24 N          23.5180   -1.7644   -5.7987 N.am      4 UNK        -0.4209 
     25 C          24.4681   -1.3787   -4.9357 C.2       3 UNK         0.4942 
     26 O          25.3274   -0.5375   -5.2060 O.2       3 UNK        -0.5208 
     27 CA         24.4991   -2.0898   -3.5701 C.3       3 UNK         0.0250 
     28 CB         25.2300   -3.4377   -3.6928 C.3       3 UNK        -0.1990 
     29 N          25.1735   -1.2777   -2.5521 N.am      3 UNK        -0.4232 
     30 C          24.6952   -0.1221   -2.0684 C.2       2 UNK         0.4993 
     31 O          23.5560    0.2877   -2.3016 O.2       2 UNK        -0.5286 
     32 CA         25.6404    0.7043   -1.1758 C.3       2 UNK         0.0209 
     33 CB         24.9580    1.9652   -0.6104 C.3       2 UNK        -0.1931 
     34 N          26.1420   -0.0890   -0.0487 N.am      2 UNK        -0.4546 
     35 C          27.3502   -0.6458    0.1292 C.2       1 UNK         0.5154 
     36 O          27.6476   -1.1715    1.2016 O.2       1 UNK        -0.5181 
     37 C          27.6417   -2.1537   -8.1066 C.2       5 UNK         0.5014 
     38 O          28.4354   -1.6945   -8.9274 O.2       5 UNK        -0.5248 
     39 N          27.7133   -1.9298   -6.7875 N.am      6 UNK        -0.4434 
     40 CA         28.7280   -1.1046   -6.1362 C.3       6 UNK         0.0363 
     41 CB         28.6059   -1.2369   -4.6146 C.3       6 UNK        -0.1936 
     42 C          28.6379    0.3662   -6.5550 C.2       6 UNK         0.5081 
     43 O          29.6662    0.9724   -6.8509 O.2       6 UNK        -0.5248 
     44 N          27.4086    0.8954   -6.6115 N.am      7 UNK        -0.4718 
     45 CA         27.1034    2.2425   -7.0902 C.3       7 UNK         0.0273 
     46 CB         25.6248    2.5605   -6.8175 C.3       7 UNK        -0.1935 
     47 C          27.4448    2.4326   -8.5776 C.2       7 UNK         0.5018 
     48 O          28.0277    3.4577   -8.9313 O.2       7 UNK        -0.5186 
     49 N          27.1022    1.4400   -9.4128 N.am      8 UNK        -0.4240 
     50 CA         27.3968    1.4251  -10.8480 C.3       8 UNK         0.0235 
     51 CB         26.6286    0.2788  -11.5256 C.3       8 UNK        -0.2000 
     52 C          28.9006    1.3280  -11.1546 C.2       8 UNK         0.4941 
     53 O          29.3917    2.0750  -12.0018 O.2       8 UNK        -0.5273 
     54 N          29.6043    0.4193  -10.4651 N.am      9 UNK        -0.4262 
     55 CA         31.0452    0.1981  -10.6226 C.3       9 UNK         0.0264 
     56 CB         31.3900   -1.2122  -10.1205 C.3       9 UNK        -0.1955 
     57 C          31.9198    1.2515   -9.9167 C.2       9 UNK         0.5031 
     58 O          33.1097    1.3313  -10.2256 O.2       9 UNK        -0.5390 
     59 N          31.3305    2.0204   -8.9888 N.am      10 UNK        -0.4204 
     60 CA         31.9627    3.0031   -8.1009 C.3       10 UNK         0.0237 
     61 CB         32.5687    4.1789   -8.8975 C.3       10 UNK        -0.1985 
     62 C          32.9555    2.3377   -7.1279 C.2       10 UNK         0.4970 
     63 O          34.0972    2.7854   -6.9991 O.2       10 UNK        -0.4914 
     64 N          32.4948    1.2648   -6.4738 N.am      11 UNK        -0.4285 
     65 CA         33.2383    0.5062   -5.4572 C.3       11 UNK         0.1007 
     66 C          33.4715    1.3181   -4.1530 C.2       11 UNK         0.5703 
     67 N          34.5072    0.9829   -3.3951 N.am      11 UNK        -0.7361 
     68 O          32.7136    2.2209   -3.8039 O.2       11 UNK        -0.4986 
     69 C69        32.5549   -0.8520   -5.1502 C.3       12 UNK        -0.0947 
     70 S70        32.5060   -1.9357   -6.6151 S.3       12 UNK        -0.2240 
     71 C71        32.6328   -3.5923   -5.8777 C.3       12 UNK         0.0194 
     72 H72        29.7111    3.6457   -0.8937 H         1 UNK         0.0906 
     73 H73        30.8005    2.4970   -0.1112 H         1 UNK         0.0906 
     74 H74        31.0668    2.9608   -1.7916 H         1 UNK         0.0906 
     75 H75        29.7204    0.5513    0.1768 H         1 UNK         0.3140 
     76 H76        27.9183   -0.4990   -1.9537 H         1 UNK         0.1085 
     77 H77        30.0358   -1.7771   -1.8352 H         1 UNK         0.0836 
     78 H78        29.7696   -2.1080   -0.1433 H         1 UNK         0.0836 
     79 H79        29.2152   -5.5556   -1.6525 H         1 UNK         0.0731 
     80 H80        30.4549   -4.3603   -1.3883 H         1 UNK         0.0731 
     81 H81        31.7302   -3.5626   -3.2971 H         1 UNK         0.1312 
     82 H82        30.6054   -4.7777   -7.2547 H         1 UNK         0.1406 
     83 H83        28.0404   -5.6550   -3.9320 H         1 UNK         0.1631 
     84 H84        28.0696   -7.0229   -6.1706 H         1 UNK         0.0717 
     85 H85        28.7139   -6.2372   -7.5784 H         1 UNK         0.0717 
     86 H86        27.7261   -4.7414   -8.9513 H         1 UNK         0.0934 
     87 H87        26.0316   -5.0630   -9.1160 H         1 UNK         0.0934 
     88 H88        26.3335   -2.7668   -9.6602 H         1 UNK         0.0739 
     89 H89        24.8050   -3.3284   -7.3240 H         1 UNK         0.3093 
     90 H90        23.2322   -0.1360   -7.0548 H         1 UNK         0.0818 
     91 H91        21.2072   -1.5471   -7.2366 H         1 UNK         0.0819 
     92 H92        21.9622   -1.3860   -8.8123 H         1 UNK         0.0819 
     93 H93        22.1513   -2.8794   -7.9042 H         1 UNK         0.0819 
     94 H94        22.8483   -2.4637   -5.5105 H         1 UNK         0.3041 
     95 H95        23.4723   -2.2686   -3.2439 H         1 UNK         0.0784 
     96 H96        26.2599   -3.3131   -4.0302 H         1 UNK         0.0793 
     97 H97        25.2550   -3.9639   -2.7383 H         1 UNK         0.0793 
     98 H98        24.7319   -4.0948   -4.4067 H         1 UNK         0.0793 
     99 H99        26.1003   -1.5772   -2.2934 H         1 UNK         0.3024 
    100 H100       26.4469    1.0605   -1.8149 H         1 UNK         0.1171 
    101 H101       24.5957    2.6088   -1.4135 H         1 UNK         0.0786 
    102 H102       25.6533    2.5577   -0.0152 H         1 UNK         0.0786 
    103 H103       24.1037    1.7169    0.0207 H         1 UNK         0.0786 
    104 H104       25.4813   -0.1956    0.7078 H         1 UNK         0.2977 
    105 H105       27.0011   -2.3265   -6.1941 H         1 UNK         0.3127 
    106 H106       29.7024   -1.4856   -6.4409 H         1 UNK         0.0770 
    107 H107       27.6503   -0.8653   -4.2515 H         1 UNK         0.0814 
    108 H108       29.3814   -0.6656   -4.1056 H         1 UNK         0.0814 
    109 H109       28.7023   -2.2735   -4.3035 H         1 UNK         0.0814 
    110 H110       26.6254    0.3311   -6.2885 H         1 UNK         0.2983 
    111 H111       27.7159    2.9425   -6.5176 H         1 UNK         0.0947 
    112 H112       25.3774    3.5734   -7.1374 H         1 UNK         0.0806 
    113 H113       25.3949    2.4890   -5.7540 H         1 UNK         0.0806 
    114 H114       24.9601    1.8774   -7.3475 H         1 UNK         0.0806 
    115 H115       26.5721    0.6540   -9.0459 H         1 UNK         0.3000 
    116 H116       27.0360    2.3663  -11.2684 H         1 UNK         0.0850 
    117 H117       26.8247    0.2563  -12.5984 H         1 UNK         0.0810 
    118 H118       25.5523    0.3928  -11.3950 H         1 UNK         0.0810 
    119 H119       26.9120   -0.6929  -11.1201 H         1 UNK         0.0810 
    120 H120       29.1179   -0.2022   -9.8199 H         1 UNK         0.3040 
    121 H121       31.2871    0.2426  -11.6867 H         1 UNK         0.0766 
    122 H122       32.4585   -1.4147  -10.2049 H         1 UNK         0.0812 
    123 H123       30.8664   -1.9766  -10.6947 H         1 UNK         0.0812 
    124 H124       31.1137   -1.3370   -9.0740 H         1 UNK         0.0812 
    125 H125       30.3660    1.8081   -8.7624 H         1 UNK         0.3205 
    126 H126       31.1596    3.4086   -7.4834 H         1 UNK         0.0754 
    127 H127       32.9219    4.9617   -8.2252 H         1 UNK         0.0769 
    128 H128       31.8296    4.6295   -9.5600 H         1 UNK         0.0769 
    129 H129       33.4186    3.8671   -9.5050 H         1 UNK         0.0769 
    130 H130       31.5215    1.0030   -6.6098 H         1 UNK         0.2981 
    131 H131       34.2236    0.2974   -5.8789 H         1 UNK         0.0541 
    132 H132       34.6709    1.4902   -2.5398 H         1 UNK         0.3459 
    133 H133       35.1338    0.2407   -3.6646 H         1 UNK         0.3459 
    134 H134       31.5380   -0.6989   -4.7920 H         1 UNK         0.0612 
    135 H135       33.0860   -1.3731   -4.3521 H         1 UNK         0.0612 
    136 H136       33.3957   -3.5948   -5.0979 H         1 UNK         0.0624 
    137 H137       32.9911   -4.2799   -6.6451 H         1 UNK         0.0624 
@<TRIPOS>BOND
     1    1    2 1    
     2    1   72 1    
     3    1   73 1    
     4    1   74 1    
     5    2    3 2    
     6    2    4 am   BACKBONE|DICT|INTERRES
     7    4    5 1    
     8    4   75 1    
     9    5    6 1    
    10    5   35 1    
    11    5   76 1    
    12    6    7 1    
    13    6   77 1    
    14    6   78 1    
    15    7    8 1    
    16    8    9 1    
    17    8   79 1    
    18    8   80 1    
    19    9   10 ar   
    20    9   14 ar   
    21   10   11 ar   
    22   10   81 1    
    23   11   12 ar   
    24   11   71 1    
    25   12   13 ar   
    26   12   82 1    
    27   13   14 ar   
    28   13   15 1    
    29   14   83 1    
    30   15   16 1    
    31   15   84 1    
    32   15   85 1    
    33   16   17 1    
    34   17   18 1    
    35   17   86 1    
    36   17   87 1    
    37   18   19 1    
    38   18   37 1    
    39   18   88 1    
    40   19   20 am   BACKBONE|DICT|INTERRES
    41   19   89 1    
    42   20   21 2    
    43   20   22 1    
    44   22   23 1    
    45   22   24 1    
    46   22   90 1    
    47   23   91 1    
    48   23   92 1    
    49   23   93 1    
    50   24   25 am   BACKBONE|DICT|INTERRES
    51   24   94 1    
    52   25   26 2    
    53   25   27 1    
    54   27   28 1    
    55   27   29 1    
    56   27   95 1    
    57   28   96 1    
    58   28   97 1    
    59   28   98 1    
    60   29   30 am   BACKBONE|DICT|INTERRES
    61   29   99 1    
    62   30   31 2    
    63   30   32 1    
    64   32   33 1    
    65   32   34 1    
    66   32  100 1    
    67   33  101 1    
    68   33  102 1    
    69   33  103 1    
    70   34   35 am   BACKBONE|DICT|INTERRES
    71   34  104 1    
    72   35   36 2    
    73   37   38 2    
    74   37   39 am   BACKBONE|DICT|INTERRES
    75   39   40 1    
    76   39  105 1    
    77   40   41 1    
    78   40   42 1    
    79   40  106 1    
    80   41  107 1    
    81   41  108 1    
    82   41  109 1    
    83   42   43 2    
    84   42   44 am   BACKBONE|DICT|INTERRES
    85   44   45 1    
    86   44  110 1    
    87   45   46 1    
    88   45   47 1    
    89   45  111 1    
    90   46  112 1    
    91   46  113 1    
    92   46  114 1    
    93   47   48 2    
    94   47   49 am   BACKBONE|DICT|INTERRES
    95   49   50 1    
    96   49  115 1    
    97   50   51 1    
    98   50   52 1    
    99   50  116 1    
   100   51  117 1    
   101   51  118 1    
   102   51  119 1    
   103   52   53 2    
   104   52   54 am   BACKBONE|DICT|INTERRES
   105   54   55 1    
   106   54  120 1    
   107   55   56 1    
   108   55   57 1    
   109   55  121 1    
   110   56  122 1    
   111   56  123 1    
   112   56  124 1    
   113   57   58 2    
   114   57   59 am   BACKBONE|DICT|INTERRES
   115   59   60 1    
   116   59  125 1    
   117   60   61 1    
   118   60   62 1    
   119   60  126 1    
   120   61  127 1    
   121   61  128 1    
   122   61  129 1    
   123   62   63 2    
   124   62   64 am   BACKBONE|DICT|INTERRES
   125   64   65 1    
   126   64  130 1    
   127   65   66 1    
   128   65   69 1    
   129   65  131 1    
   130   66   67 am   BACKBONE|DICT|INTERRES
   131   66   68 2    
   132   67  132 1    
   133   67  133 1    
   134   69   70 1    
   135   69  134 1    
   136   69  135 1    
   137   70   71 1    
   138   71  136 1    
   139   71  137 1    
@<TRIPOS>SUBSTRUCTURE
     1 UNK         1 GROUP             0       ****    0 ROOT    
