@<TRIPOS>MOLECULE
3R137
137   139    1
SMALL
USER_CHARGES


@<TRIPOS>ATOM
      1 CA         27.7925   -2.4894    4.2568 C.3       0 UNK        -0.2020 
      2 C          27.3752   -2.4816    2.7930 C.2       0 UNK         0.4855 
      3 O          26.3070   -3.0004    2.4688 O.2       0 UNK        -0.5197 
      4 N          28.2228   -1.9102    1.9243 N.am      1 UNK        -0.4892 
      5 CA         28.0415   -1.7036    0.4797 C.3       1 UNK         0.0835 
      6 C6         27.6099   -2.9845   -0.2883 C.3       12 UNK        -0.0855 
      7 S7         27.9404   -2.8894   -2.0808 S.3       12 UNK        -0.2931 
      8 C8         29.4075   -3.9516   -2.2315 C.3       12 UNK         0.0378 
      9 C9         29.8688   -4.0451   -3.6780 C.ar      12 UNK        -0.0802 
     10 C10        30.9464   -3.2782   -4.1299 C.ar      12 UNK        -0.0944 
     11 C11        31.3803   -3.3686   -5.4574 C.ar      12 UNK        -0.0787 
     12 C12        30.7302   -4.2490   -6.3313 C.ar      12 UNK        -0.0862 
     13 C13        29.6615   -5.0359   -5.8857 C.ar      12 UNK        -0.0733 
     14 C14        29.2312   -4.9211   -4.5602 C.ar      12 UNK        -0.0832 
     15 C15        29.0122   -6.0622   -6.8084 C.3       12 UNK         0.0240 
     16 S16        28.0591   -5.3226   -8.1729 S.3       12 UNK        -0.2522 
     17 C17        26.7204   -4.4420   -7.2953 C.3       12 UNK        -0.0967 
     18 CA         26.4505   -3.0391   -7.8934 C.3       5 UNK         0.0660 
     19 N          25.1989   -2.4623   -7.3943 N.am      5 UNK        -0.4015 
     20 C          24.6280   -1.3474   -7.8760 C.2       4 UNK         0.4946 
     21 O          25.0540   -0.7246   -8.8477 O.2       4 UNK        -0.5353 
     22 CA         23.4038   -0.8010   -7.1173 C.3       4 UNK         0.0277 
     23 CB         22.1082   -1.4069   -7.6798 C.3       4 UNK        -0.1981 
     24 N          23.4568   -1.0100   -5.6646 N.am      4 UNK        -0.4209 
     25 C          24.4417   -0.5794   -4.8634 C.2       3 UNK         0.4942 
     26 O          25.4235    0.0470   -5.2711 O.2       3 UNK        -0.5208 
     27 CA         24.3335   -0.9771   -3.3809 C.3       3 UNK         0.0250 
     28 CB         24.4217   -2.5058   -3.2181 C.3       3 UNK        -0.1990 
     29 N          25.4016   -0.3689   -2.5888 N.am      3 UNK        -0.4232 
     30 C          25.4207    0.8984   -2.1530 C.2       2 UNK         0.4993 
     31 O          24.4779    1.6809   -2.2885 O.2       2 UNK        -0.5286 
     32 CA         26.7199    1.3696   -1.4637 C.3       2 UNK         0.0209 
     33 CB         26.4891    2.5245   -0.4643 C.3       2 UNK        -0.1931 
     34 N          27.4852    0.2704   -0.8529 N.am      2 UNK        -0.4546 
     35 C          27.1129   -0.5058    0.1780 C.2       1 UNK         0.5154 
     36 O          26.0857   -0.3271    0.8359 O.2       1 UNK        -0.5181 
     37 C          27.6425   -2.0810   -7.6902 C.2       5 UNK         0.5014 
     38 O          28.4040   -1.8623   -8.6323 O.2       5 UNK        -0.5248 
     39 N          27.7579   -1.4905   -6.4912 N.am      6 UNK        -0.4434 
     40 CA         28.8043   -0.5213   -6.1652 C.3       6 UNK         0.0363 
     41 CB         28.8285   -0.2399   -4.6560 C.3       6 UNK        -0.1936 
     42 C          28.6654    0.7837   -6.9577 C.2       6 UNK         0.5081 
     43 O          29.6753    1.3267   -7.4053 O.2       6 UNK        -0.5248 
     44 N          27.4195    1.2386   -7.1502 N.am      7 UNK        -0.4718 
     45 CA         27.0790    2.3898   -7.9875 C.3       7 UNK         0.0273 
     46 CB         25.5924    2.7365   -7.8113 C.3       7 UNK        -0.1935 
     47 C          27.4229    2.1654   -9.4708 C.2       7 UNK         0.5018 
     48 O          27.9762    3.0675  -10.0998 O.2       7 UNK        -0.5186 
     49 N          27.1183    0.9674   -9.9923 N.am      8 UNK        -0.4240 
     50 CA         27.4528    0.5441  -11.3546 C.3       8 UNK         0.0235 
     51 CB         26.7020   -0.7530  -11.6970 C.3       8 UNK        -0.2000 
     52 C          28.9653    0.3712  -11.5714 C.2       8 UNK         0.4941 
     53 O          29.4800    0.8183  -12.5972 O.2       8 UNK        -0.5273 
     54 N          29.6499   -0.2616  -10.6074 N.am      9 UNK        -0.4262 
     55 CA         31.1020   -0.4618  -10.6138 C.3       9 UNK         0.0264 
     56 CB         31.4799   -1.4858   -9.5302 C.3       9 UNK        -0.1955 
     57 C          31.9002    0.8376  -10.4110 C.2       9 UNK         0.5031 
     58 O          33.0295    0.9246  -10.8952 O.2       9 UNK        -0.5390 
     59 N          31.3126    1.7991   -9.6823 N.am      10 UNK        -0.4204 
     60 CA         31.8980    3.0649   -9.2262 C.3       10 UNK         0.0237 
     61 CB         32.2344    3.9896  -10.4156 C.3       10 UNK        -0.1985 
     62 C          33.0832    2.8461   -8.2645 C.2       10 UNK         0.4970 
     63 O          34.0457    3.6156   -8.2856 O.2       10 UNK        -0.4914 
     64 N          32.9914    1.7915   -7.4437 N.am      11 UNK        -0.4285 
     65 CA         34.0170    1.3837   -6.4721 C.3       11 UNK         0.1007 
     66 C          34.0151    2.1931   -5.1419 C.2       11 UNK         0.5703 
     67 N          33.0343    3.0513   -4.8853 N.am      11 UNK        -0.7361 
     68 O          34.9328    2.0532   -4.3366 O.2       11 UNK        -0.4986 
     69 C69        33.9992   -0.1513   -6.2404 C.3       12 UNK        -0.0947 
     70 S70        32.4115   -0.7782   -5.6006 S.3       12 UNK        -0.2240 
     71 C71        32.5853   -2.5609   -5.9308 C.3       12 UNK         0.0194 
     72 H72        28.7628   -2.0173    4.4099 H         1 UNK         0.0906 
     73 H73        27.0576   -1.9550    4.8582 H         1 UNK         0.0906 
     74 H74        27.8530   -3.5135    4.6242 H         1 UNK         0.0906 
     75 H75        29.0699   -1.5004    2.2948 H         1 UNK         0.3140 
     76 H76        29.0390   -1.4347    0.1270 H         1 UNK         0.1085 
     77 H77        28.1271   -3.8549    0.1184 H         1 UNK         0.0836 
     78 H78        26.5457   -3.1838   -0.1482 H         1 UNK         0.0836 
     79 H79        29.1763   -4.9492   -1.8548 H         1 UNK         0.0731 
     80 H80        30.2057   -3.5584   -1.5999 H         1 UNK         0.0731 
     81 H81        31.4512   -2.6080   -3.4477 H         1 UNK         0.1312 
     82 H82        31.0670   -4.3417   -7.3548 H         1 UNK         0.1406 
     83 H83        28.4083   -5.5265   -4.2044 H         1 UNK         0.1631 
     84 H84        28.3584   -6.7314   -6.2468 H         1 UNK         0.0717 
     85 H85        29.7928   -6.6937   -7.2348 H         1 UNK         0.0717 
     86 H86        25.8241   -5.0591   -7.3759 H         1 UNK         0.0934 
     87 H87        26.9412   -4.3730   -6.2291 H         1 UNK         0.0934 
     88 H88        26.3220   -3.1598   -8.9716 H         1 UNK         0.0739 
     89 H89        24.7717   -2.9135   -6.5997 H         1 UNK         0.3093 
     90 H90        23.3747    0.2772   -7.2859 H         1 UNK         0.0818 
     91 H91        21.2271   -0.9498   -7.2291 H         1 UNK         0.0819 
     92 H92        22.0382   -1.2450   -8.7566 H         1 UNK         0.0819 
     93 H93        22.0549   -2.4827   -7.5082 H         1 UNK         0.0819 
     94 H94        22.6847   -1.5158   -5.2539 H         1 UNK         0.3041 
     95 H95        23.3697   -0.6327   -3.0000 H         1 UNK         0.0784 
     96 H96        23.5749   -3.0078   -3.6870 H         1 UNK         0.0793 
     97 H97        25.3301   -2.9099   -3.6668 H         1 UNK         0.0793 
     98 H98        24.4166   -2.7924   -2.1660 H         1 UNK         0.0793 
     99 H99        26.2274   -0.9331   -2.4470 H         1 UNK         0.3024 
    100 H100       27.3452    1.7622   -2.2674 H         1 UNK         0.1171 
    101 H101       27.4218    2.8353    0.0063 H         1 UNK         0.0786 
    102 H102       26.0754    3.3990   -0.9679 H         1 UNK         0.0786 
    103 H103       25.7897    2.2475    0.3248 H         1 UNK         0.0786 
    104 H104       28.3456    0.0344   -1.3289 H         1 UNK         0.2977 
    105 H105       27.0515   -1.6487   -5.7882 H         1 UNK         0.3127 
    106 H106       29.7539   -0.9752   -6.4466 H         1 UNK         0.0770 
    107 H107       27.8835    0.1697   -4.3015 H         1 UNK         0.0814 
    108 H108       29.6115    0.4781   -4.4086 H         1 UNK         0.0814 
    109 H109       29.0398   -1.1473   -4.0951 H         1 UNK         0.0814 
    110 H110       26.6544    0.7490   -6.6946 H         1 UNK         0.2983 
    111 H111       27.6706    3.2381   -7.6363 H         1 UNK         0.0947 
    112 H112       25.3344    3.6362   -8.3714 H         1 UNK         0.0806 
    113 H113       25.3488    2.9228   -6.7651 H         1 UNK         0.0806 
    114 H114       24.9455    1.9352   -8.1679 H         1 UNK         0.0806 
    115 H115       26.6011    0.3025   -9.4225 H         1 UNK         0.3000 
    116 H116       27.1088    1.3234  -12.0381 H         1 UNK         0.0850 
    117 H117       26.9284   -1.0800  -12.7127 H         1 UNK         0.0810 
    118 H118       25.6227   -0.6132  -11.6338 H         1 UNK         0.0810 
    119 H119       26.9720   -1.5665  -11.0228 H         1 UNK         0.0810 
    120 H120       29.1373   -0.6750   -9.8287 H         1 UNK         0.3040 
    121 H121       31.3818   -0.8729  -11.5860 H         1 UNK         0.0766 
    122 H122       31.1928   -1.1422   -8.5357 H         1 UNK         0.0812 
    123 H123       32.5558   -1.6653   -9.5164 H         1 UNK         0.0812 
    124 H124       30.9921   -2.4453   -9.7029 H         1 UNK         0.0812 
    125 H125       30.4162    1.5780   -9.2585 H         1 UNK         0.3205 
    126 H126       31.1212    3.5570   -8.6389 H         1 UNK         0.0754 
    127 H127       32.5288    4.9807  -10.0685 H         1 UNK         0.0769 
    128 H128       31.3725    4.1189  -11.0704 H         1 UNK         0.0769 
    129 H129       33.0567    3.5986  -11.0154 H         1 UNK         0.0769 
    130 H130       32.1428    1.2418   -7.4486 H         1 UNK         0.2981 
    131 H131       34.9855    1.6045   -6.9248 H         1 UNK         0.0541 
    132 H132       32.2760    3.1677   -5.5374 H         1 UNK         0.3459 
    133 H133       33.0488    3.5751   -4.0248 H         1 UNK         0.3459 
    134 H134       34.7952   -0.4503   -5.5560 H         1 UNK         0.0612 
    135 H135       34.2121   -0.6572   -7.1834 H         1 UNK         0.0612 
    136 H136       33.4779   -2.9313   -5.4252 H         1 UNK         0.0624 
    137 H137       32.7481   -2.7053   -6.9997 H         1 UNK         0.0624 
@<TRIPOS>BOND
     1    1    2 1    
     2    1   72 1    
     3    1   73 1    
     4    1   74 1    
     5    2    3 2    
     6    2    4 am   BACKBONE|DICT|INTERRES
     7    4    5 1    
     8    4   75 1    
     9    5    6 1    
    10    5   35 1    
    11    5   76 1    
    12    6    7 1    
    13    6   77 1    
    14    6   78 1    
    15    7    8 1    
    16    8    9 1    
    17    8   79 1    
    18    8   80 1    
    19    9   10 ar   
    20    9   14 ar   
    21   10   11 ar   
    22   10   81 1    
    23   11   12 ar   
    24   11   71 1    
    25   12   13 ar   
    26   12   82 1    
    27   13   14 ar   
    28   13   15 1    
    29   14   83 1    
    30   15   16 1    
    31   15   84 1    
    32   15   85 1    
    33   16   17 1    
    34   17   18 1    
    35   17   86 1    
    36   17   87 1    
    37   18   19 1    
    38   18   37 1    
    39   18   88 1    
    40   19   20 am   BACKBONE|DICT|INTERRES
    41   19   89 1    
    42   20   21 2    
    43   20   22 1    
    44   22   23 1    
    45   22   24 1    
    46   22   90 1    
    47   23   91 1    
    48   23   92 1    
    49   23   93 1    
    50   24   25 am   BACKBONE|DICT|INTERRES
    51   24   94 1    
    52   25   26 2    
    53   25   27 1    
    54   27   28 1    
    55   27   29 1    
    56   27   95 1    
    57   28   96 1    
    58   28   97 1    
    59   28   98 1    
    60   29   30 am   BACKBONE|DICT|INTERRES
    61   29   99 1    
    62   30   31 2    
    63   30   32 1    
    64   32   33 1    
    65   32   34 1    
    66   32  100 1    
    67   33  101 1    
    68   33  102 1    
    69   33  103 1    
    70   34   35 am   BACKBONE|DICT|INTERRES
    71   34  104 1    
    72   35   36 2    
    73   37   38 2    
    74   37   39 am   BACKBONE|DICT|INTERRES
    75   39   40 1    
    76   39  105 1    
    77   40   41 1    
    78   40   42 1    
    79   40  106 1    
    80   41  107 1    
    81   41  108 1    
    82   41  109 1    
    83   42   43 2    
    84   42   44 am   BACKBONE|DICT|INTERRES
    85   44   45 1    
    86   44  110 1    
    87   45   46 1    
    88   45   47 1    
    89   45  111 1    
    90   46  112 1    
    91   46  113 1    
    92   46  114 1    
    93   47   48 2    
    94   47   49 am   BACKBONE|DICT|INTERRES
    95   49   50 1    
    96   49  115 1    
    97   50   51 1    
    98   50   52 1    
    99   50  116 1    
   100   51  117 1    
   101   51  118 1    
   102   51  119 1    
   103   52   53 2    
   104   52   54 am   BACKBONE|DICT|INTERRES
   105   54   55 1    
   106   54  120 1    
   107   55   56 1    
   108   55   57 1    
   109   55  121 1    
   110   56  122 1    
   111   56  123 1    
   112   56  124 1    
   113   57   58 2    
   114   57   59 am   BACKBONE|DICT|INTERRES
   115   59   60 1    
   116   59  125 1    
   117   60   61 1    
   118   60   62 1    
   119   60  126 1    
   120   61  127 1    
   121   61  128 1    
   122   61  129 1    
   123   62   63 2    
   124   62   64 am   BACKBONE|DICT|INTERRES
   125   64   65 1    
   126   64  130 1    
   127   65   66 1    
   128   65   69 1    
   129   65  131 1    
   130   66   67 am   BACKBONE|DICT|INTERRES
   131   66   68 2    
   132   67  132 1    
   133   67  133 1    
   134   69   70 1    
   135   69  134 1    
   136   69  135 1    
   137   70   71 1    
   138   71  136 1    
   139   71  137 1    
@<TRIPOS>SUBSTRUCTURE
     1 UNK         1 GROUP             0       ****    0 ROOT    
