@<TRIPOS>MOLECULE
3R137
137   139    1
SMALL
USER_CHARGES


@<TRIPOS>ATOM
      1 CA         24.4581   -4.6536    1.0946 C.3       0 UNK        -0.2020 
      2 C          24.3257   -5.1367   -0.3475 C.2       0 UNK         0.4855 
      3 O          23.2519   -5.5963   -0.7318 O.2       0 UNK        -0.5197 
      4 N          25.3756   -5.0752   -1.1784 N.am      1 UNK        -0.4892 
      5 CA         26.6998   -4.5028   -0.9040 C.3       1 UNK         0.0835 
      6 C6         27.8014   -5.2757   -1.6814 C.3       12 UNK        -0.0855 
      7 S7         29.4631   -5.1280   -0.9217 S.3       12 UNK        -0.2931 
      8 C8         30.5934   -5.3660   -2.3352 C.3       12 UNK         0.0378 
      9 C9         30.3847   -4.3190   -3.4195 C.ar      12 UNK        -0.0802 
     10 C10        30.8893   -3.0222   -3.2688 C.ar      12 UNK        -0.0944 
     11 C11        30.6277   -2.0451   -4.2362 C.ar      12 UNK        -0.0787 
     12 C12        29.8547   -2.3771   -5.3523 C.ar      12 UNK        -0.0862 
     13 C13        29.3769   -3.6764   -5.5294 C.ar      12 UNK        -0.0733 
     14 C14        29.6583   -4.6471   -4.5677 C.ar      12 UNK        -0.0832 
     15 C15        28.5295   -4.0290   -6.7391 C.3       12 UNK         0.0240 
     16 S16        26.7670   -4.0119   -6.2978 S.3       12 UNK        -0.2522 
     17 C17        26.0639   -2.9065   -7.5709 C.3       12 UNK        -0.0967 
     18 CA         25.9167   -1.4231   -7.1247 C.3       5 UNK         0.0660 
     19 N          25.2939   -1.2761   -5.8028 N.am      5 UNK        -0.4015 
     20 C          23.9795   -1.4272   -5.5794 C.2       4 UNK         0.4946 
     21 O          23.1561   -1.6373   -6.4719 O.2       4 UNK        -0.5353 
     22 CA         23.4777   -1.3357   -4.1242 C.3       4 UNK         0.0277 
     23 CB         23.4079   -2.7395   -3.5018 C.3       4 UNK        -0.1981 
     24 N          24.2910   -0.4686   -3.2699 N.am      4 UNK        -0.4209 
     25 C          24.4735    0.8459   -3.4679 C.2       3 UNK         0.4942 
     26 O          23.8781    1.4920   -4.3305 O.2       3 UNK        -0.5208 
     27 CA         25.5148    1.5715   -2.5938 C.3       3 UNK         0.0250 
     28 CB         24.8135    2.4703   -1.5621 C.3       3 UNK        -0.1990 
     29 N          26.4734    0.7087   -1.8945 N.am      3 UNK        -0.4232 
     30 C          27.2778   -0.2166   -2.4378 C.2       2 UNK         0.4993 
     31 O          27.2772   -0.5060   -3.6354 O.2       2 UNK        -0.5286 
     32 CA         28.2135   -0.9745   -1.4774 C.3       2 UNK         0.0209 
     33 CB         28.2937   -0.3637   -0.0599 C.3       2 UNK        -0.1931 
     34 N          27.8945   -2.4024   -1.3761 N.am      2 UNK        -0.4546 
     35 C          26.7027   -2.9699   -1.1421 C.2       1 UNK         0.5154 
     36 O          25.6480   -2.3315   -1.0723 O.2       1 UNK        -0.5181 
     37 C          27.2008   -0.5824   -7.2888 C.2       5 UNK         0.5014 
     38 O          27.9646   -0.8224   -8.2274 O.2       5 UNK        -0.5248 
     39 N          27.4143    0.4164   -6.4177 N.am      6 UNK        -0.4434 
     40 CA         28.5795    1.3107   -6.4069 C.3       6 UNK         0.0363 
     41 CB         28.4484    2.3226   -5.2569 C.3       6 UNK        -0.1936 
     42 C          28.8279    2.0521   -7.7273 C.2       6 UNK         0.5081 
     43 O          29.9838    2.2061   -8.1192 O.2       6 UNK        -0.5248 
     44 N          27.7472    2.4714   -8.3976 N.am      7 UNK        -0.4718 
     45 CA         27.7930    3.1465   -9.6966 C.3       7 UNK         0.0273 
     46 CB         26.4352    3.8142   -9.9670 C.3       7 UNK        -0.1935 
     47 C          28.1721    2.2108  -10.8583 C.2       7 UNK         0.5018 
     48 O          28.7394    2.6829  -11.8435 O.2       7 UNK        -0.5186 
     49 N          27.8568    0.9140  -10.7294 N.am      8 UNK        -0.4240 
     50 CA         28.1853   -0.1153  -11.7169 C.3       8 UNK         0.0235 
     51 CB         27.1942   -1.2857  -11.6012 C.3       8 UNK        -0.2000 
     52 C          29.6316   -0.6016  -11.5522 C.2       8 UNK         0.4941 
     53 O          30.3408   -0.7419  -12.5489 O.2       8 UNK        -0.5273 
     54 N          30.0466   -0.8321  -10.2986 N.am      9 UNK        -0.4262 
     55 CA         31.4066   -1.2469   -9.9424 C.3       9 UNK         0.0264 
     56 CB         31.3855   -1.8571   -8.5358 C.3       9 UNK        -0.1955 
     57 C          32.4416   -0.1091  -10.0096 C.2       9 UNK         0.5031 
     58 O          33.6357   -0.4007  -10.0899 O.2       9 UNK        -0.5390 
     59 N          31.9725    1.1467   -9.9598 N.am      10 UNK        -0.4204 
     60 CA         32.7438    2.3916   -9.8821 C.3       10 UNK         0.0237 
     61 CB         33.6240    2.5967  -11.1344 C.3       10 UNK        -0.1985 
     62 C          33.5192    2.4947   -8.5551 C.2       10 UNK         0.4970 
     63 O          34.7229    2.7605   -8.5573 O.2       10 UNK        -0.4914 
     64 N          32.8030    2.2797   -7.4432 N.am      11 UNK        -0.4285 
     65 CA         33.3335    2.3874   -6.0724 C.3       11 UNK         0.1007 
     66 C          33.6036    3.8477   -5.6039 C.2       11 UNK         0.5703 
     67 N          33.0937    4.8715   -6.2793 N.am      11 UNK        -0.7361 
     68 O          34.2964    4.0544   -4.6103 O.2       11 UNK        -0.4986 
     69 C69        32.4474    1.6416   -5.0393 C.3       12 UNK        -0.0947 
     70 S70        32.3026   -0.1427   -5.3713 S.3       12 UNK        -0.2240 
     71 C71        31.1310   -0.6188   -4.0616 C.3       12 UNK         0.0194 
     72 H72        25.1678   -5.2704    1.6451 H         1 UNK         0.0906 
     73 H73        24.7842   -3.6152    1.1364 H         1 UNK         0.0906 
     74 H74        23.4983   -4.7162    1.6071 H         1 UNK         0.0906 
     75 H75        25.2369   -5.3835   -2.1298 H         1 UNK         0.3140 
     76 H76        26.9139   -4.6355    0.1576 H         1 UNK         0.1085 
     77 H77        27.8057   -4.9665   -2.7256 H         1 UNK         0.0836 
     78 H78        27.5671   -6.3417   -1.6948 H         1 UNK         0.0836 
     79 H79        30.4574   -6.3717   -2.7365 H         1 UNK         0.0731 
     80 H80        31.6230   -5.3183   -1.9775 H         1 UNK         0.0731 
     81 H81        31.4609   -2.7701   -2.3860 H         1 UNK         0.1312 
     82 H82        29.6219   -1.6195   -6.0837 H         1 UNK         0.1406 
     83 H83        29.2699   -5.6488   -4.6940 H         1 UNK         0.1631 
     84 H84        28.7978   -5.0191   -7.1102 H         1 UNK         0.0717 
     85 H85        28.7268   -3.3337   -7.5543 H         1 UNK         0.0717 
     86 H86        26.6209   -3.0000   -8.5046 H         1 UNK         0.0934 
     87 H87        25.0724   -3.2973   -7.8041 H         1 UNK         0.0934 
     88 H88        25.2400   -0.9558   -7.8435 H         1 UNK         0.0739 
     89 H89        25.9247   -1.1535   -5.0148 H         1 UNK         0.3093 
     90 H90        22.4684   -0.9197   -4.1495 H         1 UNK         0.0818 
     91 H91        23.0158   -2.7082   -2.4849 H         1 UNK         0.0819 
     92 H92        22.7542   -3.3924   -4.0817 H         1 UNK         0.0819 
     93 H93        24.3906   -3.2115   -3.4666 H         1 UNK         0.0819 
     94 H94        24.8192   -0.9248   -2.5333 H         1 UNK         0.3041 
     95 H95        26.0927    2.2113   -3.2628 H         1 UNK         0.0784 
     96 H96        24.1151    3.1540   -2.0472 H         1 UNK         0.0793 
     97 H97        24.2456    1.8843   -0.8382 H         1 UNK         0.0793 
     98 H98        25.5303    3.0817   -1.0133 H         1 UNK         0.0793 
     99 H99        26.5259    0.8317   -0.8938 H         1 UNK         0.3024 
    100 H100       29.2071   -0.9076   -1.9193 H         1 UNK         0.1171 
    101 H101       28.5789    0.6889   -0.0940 H         1 UNK         0.0786 
    102 H102       27.3478   -0.4416    0.4778 H         1 UNK         0.0786 
    103 H103       29.0491   -0.8736    0.5384 H         1 UNK         0.0786 
    104 H104       28.6852   -3.0307   -1.4580 H         1 UNK         0.2977 
    105 H105       26.7731    0.5222   -5.6449 H         1 UNK         0.3127 
    106 H106       29.4609    0.6961   -6.2251 H         1 UNK         0.0770 
    107 H107       27.5163    2.8851   -5.3184 H         1 UNK         0.0814 
    108 H108       29.2630    3.0480   -5.2739 H         1 UNK         0.0814 
    109 H109       28.4825    1.8306   -4.2863 H         1 UNK         0.0814 
    110 H110       26.8363    2.3069   -7.9941 H         1 UNK         0.2983 
    111 H111       28.5547    3.9284   -9.6474 H         1 UNK         0.0947 
    112 H112       26.4464    4.3496  -10.9177 H         1 UNK         0.0806 
    113 H113       26.1884    4.5404   -9.1922 H         1 UNK         0.0806 
    114 H114       25.6265    3.0838  -10.0144 H         1 UNK         0.0806 
    115 H115       27.4555    0.5967   -9.8570 H         1 UNK         0.3000 
    116 H116       28.0858    0.3099  -12.7184 H         1 UNK         0.0850 
    117 H117       27.2481   -1.7738  -10.6281 H         1 UNK         0.0810 
    118 H118       27.4018   -2.0451  -12.3563 H         1 UNK         0.0810 
    119 H119       26.1676   -0.9518  -11.7523 H         1 UNK         0.0810 
    120 H120       29.3759   -0.7416   -9.5386 H         1 UNK         0.3040 
    121 H121       31.7282   -2.0201  -10.6434 H         1 UNK         0.0766 
    122 H122       30.9945   -1.1448   -7.8110 H         1 UNK         0.0812 
    123 H123       32.3869   -2.1406   -8.2088 H         1 UNK         0.0812 
    124 H124       30.7697   -2.7544   -8.5025 H         1 UNK         0.0812 
    125 H125       30.9778    1.2595   -9.8068 H         1 UNK         0.3205 
    126 H126       32.0101    3.1991   -9.8680 H         1 UNK         0.0754 
    127 H127       34.0889    3.5832  -11.1241 H         1 UNK         0.0769 
    128 H128       33.0338    2.5258  -12.0481 H         1 UNK         0.0769 
    129 H129       34.4275    1.8624  -11.1959 H         1 UNK         0.0769 
    130 H130       31.8066    2.1053   -7.5369 H         1 UNK         0.2981 
    131 H131       34.3086    1.8963   -6.0694 H         1 UNK         0.0541 
    132 H132       32.5197    4.7138   -7.0915 H         1 UNK         0.3459 
    133 H133       33.2813    5.8110   -5.9668 H         1 UNK         0.3459 
    134 H134       31.4481    2.0771   -5.0165 H         1 UNK         0.0612 
    135 H135       32.8549    1.7513   -4.0324 H         1 UNK         0.0612 
    136 H136       30.2764    0.0580   -4.0696 H         1 UNK         0.0624 
    137 H137       31.6167   -0.4938   -3.0927 H         1 UNK         0.0624 
@<TRIPOS>BOND
     1    1    2 1    
     2    1   72 1    
     3    1   73 1    
     4    1   74 1    
     5    2    3 2    
     6    2    4 am   BACKBONE|DICT|INTERRES
     7    4    5 1    
     8    4   75 1    
     9    5    6 1    
    10    5   35 1    
    11    5   76 1    
    12    6    7 1    
    13    6   77 1    
    14    6   78 1    
    15    7    8 1    
    16    8    9 1    
    17    8   79 1    
    18    8   80 1    
    19    9   10 ar   
    20    9   14 ar   
    21   10   11 ar   
    22   10   81 1    
    23   11   12 ar   
    24   11   71 1    
    25   12   13 ar   
    26   12   82 1    
    27   13   14 ar   
    28   13   15 1    
    29   14   83 1    
    30   15   16 1    
    31   15   84 1    
    32   15   85 1    
    33   16   17 1    
    34   17   18 1    
    35   17   86 1    
    36   17   87 1    
    37   18   19 1    
    38   18   37 1    
    39   18   88 1    
    40   19   20 am   BACKBONE|DICT|INTERRES
    41   19   89 1    
    42   20   21 2    
    43   20   22 1    
    44   22   23 1    
    45   22   24 1    
    46   22   90 1    
    47   23   91 1    
    48   23   92 1    
    49   23   93 1    
    50   24   25 am   BACKBONE|DICT|INTERRES
    51   24   94 1    
    52   25   26 2    
    53   25   27 1    
    54   27   28 1    
    55   27   29 1    
    56   27   95 1    
    57   28   96 1    
    58   28   97 1    
    59   28   98 1    
    60   29   30 am   BACKBONE|DICT|INTERRES
    61   29   99 1    
    62   30   31 2    
    63   30   32 1    
    64   32   33 1    
    65   32   34 1    
    66   32  100 1    
    67   33  101 1    
    68   33  102 1    
    69   33  103 1    
    70   34   35 am   BACKBONE|DICT|INTERRES
    71   34  104 1    
    72   35   36 2    
    73   37   38 2    
    74   37   39 am   BACKBONE|DICT|INTERRES
    75   39   40 1    
    76   39  105 1    
    77   40   41 1    
    78   40   42 1    
    79   40  106 1    
    80   41  107 1    
    81   41  108 1    
    82   41  109 1    
    83   42   43 2    
    84   42   44 am   BACKBONE|DICT|INTERRES
    85   44   45 1    
    86   44  110 1    
    87   45   46 1    
    88   45   47 1    
    89   45  111 1    
    90   46  112 1    
    91   46  113 1    
    92   46  114 1    
    93   47   48 2    
    94   47   49 am   BACKBONE|DICT|INTERRES
    95   49   50 1    
    96   49  115 1    
    97   50   51 1    
    98   50   52 1    
    99   50  116 1    
   100   51  117 1    
   101   51  118 1    
   102   51  119 1    
   103   52   53 2    
   104   52   54 am   BACKBONE|DICT|INTERRES
   105   54   55 1    
   106   54  120 1    
   107   55   56 1    
   108   55   57 1    
   109   55  121 1    
   110   56  122 1    
   111   56  123 1    
   112   56  124 1    
   113   57   58 2    
   114   57   59 am   BACKBONE|DICT|INTERRES
   115   59   60 1    
   116   59  125 1    
   117   60   61 1    
   118   60   62 1    
   119   60  126 1    
   120   61  127 1    
   121   61  128 1    
   122   61  129 1    
   123   62   63 2    
   124   62   64 am   BACKBONE|DICT|INTERRES
   125   64   65 1    
   126   64  130 1    
   127   65   66 1    
   128   65   69 1    
   129   65  131 1    
   130   66   67 am   BACKBONE|DICT|INTERRES
   131   66   68 2    
   132   67  132 1    
   133   67  133 1    
   134   69   70 1    
   135   69  134 1    
   136   69  135 1    
   137   70   71 1    
   138   71  136 1    
   139   71  137 1    
@<TRIPOS>SUBSTRUCTURE
     1 UNK         1 GROUP             0       ****    0 ROOT    
