@<TRIPOS>MOLECULE
3R137
137   139    1
SMALL
USER_CHARGES


@<TRIPOS>ATOM
      1 CA         31.0709    1.5327    0.3116 C.3       0 UNK        -0.2020 
      2 C          30.0995    0.7261   -0.5371 C.2       0 UNK         0.4855 
      3 O          30.1118    0.8523   -1.7608 O.2       0 UNK        -0.5197 
      4 N          29.2697   -0.1043    0.1049 N.am      1 UNK        -0.4892 
      5 CA         28.2425   -0.9351   -0.5357 C.3       1 UNK         0.0835 
      6 C6         28.0792   -2.2998    0.1841 C.3       12 UNK        -0.0855 
      7 S7         29.6306   -3.2608    0.2193 S.3       12 UNK        -0.2931 
      8 C8         29.3650   -4.4810   -1.1174 C.3       12 UNK         0.0378 
      9 C9         29.6281   -3.9918   -2.5456 C.ar      12 UNK        -0.0802 
     10 C10        30.4220   -2.8723   -2.8333 C.ar      12 UNK        -0.0944 
     11 C11        30.7072   -2.5202   -4.1567 C.ar      12 UNK        -0.0787 
     12 C12        30.1984   -3.2924   -5.2038 C.ar      12 UNK        -0.0862 
     13 C13        29.4166   -4.4172   -4.9353 C.ar      12 UNK        -0.0733 
     14 C14        29.1245   -4.7507   -3.6085 C.ar      12 UNK        -0.0832 
     15 C15        28.9437   -5.3136   -6.0700 C.3       12 UNK         0.0240 
     16 S16        27.3978   -4.7166   -6.8148 S.3       12 UNK        -0.2522 
     17 C17        27.9805   -3.8104   -8.2958 C.3       12 UNK        -0.0967 
     18 CA         27.3302   -2.4148   -8.4816 C.3       5 UNK         0.0660 
     19 N          25.8851   -2.4501   -8.2379 N.am      5 UNK        -0.4015 
     20 C          25.0127   -1.4883   -8.5609 C.2       4 UNK         0.4946 
     21 O          25.3180   -0.4694   -9.1760 O.2       4 UNK        -0.5353 
     22 CA         23.5671   -1.6649   -8.0581 C.3       4 UNK         0.0277 
     23 CB         22.7427   -2.4798   -9.0670 C.3       4 UNK        -0.1981 
     24 N          23.4703   -2.2809   -6.7267 N.am      4 UNK        -0.4209 
     25 C          24.0547   -1.7991   -5.6206 C.2       3 UNK         0.4942 
     26 O          24.7471   -0.7790   -5.6131 O.2       3 UNK        -0.5208 
     27 CA         23.8929   -2.6276   -4.3353 C.3       3 UNK         0.0250 
     28 CB         24.6483   -3.9636   -4.4462 C.3       3 UNK        -0.1990 
     29 N          24.4202   -1.9082   -3.1754 N.am      3 UNK        -0.4232 
     30 C          23.7478   -1.0004   -2.4550 C.2       2 UNK         0.4993 
     31 O          22.5683   -0.7099   -2.6609 O.2       2 UNK        -0.5286 
     32 CA         24.5032   -0.3106   -1.3021 C.3       2 UNK         0.0209 
     33 CB         23.7110   -0.3818    0.0187 C.3       2 UNK        -0.1931 
     34 N          25.8497   -0.8619   -1.0979 N.am      2 UNK        -0.4546 
     35 C          26.9039   -0.1660   -0.6507 C.2       1 UNK         0.5154 
     36 O          26.8391    1.0270   -0.3404 O.2       1 UNK        -0.5181 
     37 C          28.0597   -1.3238   -7.6684 C.2       5 UNK         0.5014 
     38 O          29.0489   -0.7725   -8.1548 O.2       5 UNK        -0.5248 
     39 N          27.5622   -1.0044   -6.4664 N.am      6 UNK        -0.4434 
     40 CA         28.0750    0.0892   -5.6429 C.3       6 UNK         0.0363 
     41 CB         27.6800   -0.1270   -4.1770 C.3       6 UNK        -0.1936 
     42 C          27.5808    1.4463   -6.1609 C.2       6 UNK         0.5081 
     43 O          28.3725    2.3841   -6.2366 O.2       6 UNK        -0.5248 
     44 N          26.3037    1.5138   -6.5663 N.am      7 UNK        -0.4718 
     45 CA         25.6894    2.6842   -7.2037 C.3       7 UNK         0.0273 
     46 CB         24.1786    2.4524   -7.3609 C.3       7 UNK        -0.1935 
     47 C          26.3364    3.0386   -8.5559 C.2       7 UNK         0.5018 
     48 O          26.5470    4.2187   -8.8366 O.2       7 UNK        -0.5186 
     49 N          26.6829    2.0109   -9.3440 N.am      8 UNK        -0.4240 
     50 CA         27.4509    2.1167  -10.5886 C.3       8 UNK         0.0235 
     51 CB         27.2732    0.8200  -11.3963 C.3       8 UNK        -0.2000 
     52 C          28.9502    2.4071  -10.3753 C.2       8 UNK         0.4941 
     53 O          29.6383    2.6944  -11.3556 O.2       8 UNK        -0.5273 
     54 N          29.4272    2.3230   -9.1236 N.am      9 UNK        -0.4262 
     55 CA         30.8044    2.5344   -8.6711 C.3       9 UNK         0.0264 
     56 CB         31.2250    4.0083   -8.8559 C.3       9 UNK        -0.1955 
     57 C          31.7968    1.5348   -9.2924 C.2       9 UNK         0.5031 
     58 O          32.8225    1.9426   -9.8415 O.2       9 UNK        -0.5390 
     59 N          31.4822    0.2349   -9.1825 N.am      10 UNK        -0.4204 
     60 CA         32.3631   -0.8640   -9.5967 C.3       10 UNK         0.0237 
     61 CB         31.5816   -2.1879   -9.5681 C.3       10 UNK        -0.1985 
     62 C          33.6374   -0.9756   -8.7372 C.2       10 UNK         0.4970 
     63 O          34.6667   -1.4249   -9.2426 O.2       10 UNK        -0.4914 
     64 N          33.5454   -0.5665   -7.4653 N.am      11 UNK        -0.4285 
     65 CA         34.6710   -0.4623   -6.5287 C.3       11 UNK         0.1007 
     66 C          35.5971    0.7284   -6.8920 C.2       11 UNK         0.5703 
     67 N          36.9055    0.5156   -6.9267 N.am      11 UNK        -0.7361 
     68 O          35.1397    1.8512   -7.0961 O.2       11 UNK        -0.4986 
     69 C69        34.1780   -0.3449   -5.0634 C.3       12 UNK        -0.0947 
     70 S70        33.3468   -1.8640   -4.4990 S.3       12 UNK        -0.2240 
     71 C71        31.6087   -1.3358   -4.4587 C.3       12 UNK         0.0194 
     72 H72        32.0968    1.3116    0.0184 H         1 UNK         0.0906 
     73 H73        30.8974    2.5988    0.1678 H         1 UNK         0.0906 
     74 H74        30.9668    1.3119    1.3737 H         1 UNK         0.0906 
     75 H75        29.2913   -0.1443    1.1137 H         1 UNK         0.3140 
     76 H76        28.5573   -1.1446   -1.5584 H         1 UNK         0.1085 
     77 H77        27.7519   -2.1477    1.2145 H         1 UNK         0.0836 
     78 H78        27.3096   -2.9133   -0.2855 H         1 UNK         0.0836 
     79 H79        30.0344   -5.3219   -0.9313 H         1 UNK         0.0731 
     80 H80        28.3531   -4.8814   -1.0390 H         1 UNK         0.0731 
     81 H81        30.8499   -2.2833   -2.0342 H         1 UNK         0.1312 
     82 H82        30.4375   -3.0349   -6.2260 H         1 UNK         0.1406 
     83 H83        28.5323   -5.6323   -3.4016 H         1 UNK         0.1631 
     84 H84        28.7720   -6.3236   -5.6946 H         1 UNK         0.0717 
     85 H85        29.7226   -5.4115   -6.8274 H         1 UNK         0.0717 
     86 H86        29.0694   -3.7372   -8.2998 H         1 UNK         0.0934 
     87 H87        27.7363   -4.4302   -9.1600 H         1 UNK         0.0934 
     88 H88        27.4637   -2.1376   -9.5294 H         1 UNK         0.0739 
     89 H89        25.5526   -3.2563   -7.7285 H         1 UNK         0.3093 
     90 H90        23.1261   -0.6689   -7.9857 H         1 UNK         0.0818 
     91 H91        21.6919   -2.5219   -8.7797 H         1 UNK         0.0819 
     92 H92        22.7861   -2.0289  -10.0597 H         1 UNK         0.0819 
     93 H93        23.1084   -3.5033   -9.1579 H         1 UNK         0.0819 
     94 H94        22.9187   -3.1245   -6.6572 H         1 UNK         0.3041 
     95 H95        22.8296   -2.8302   -4.1890 H         1 UNK         0.0784 
     96 H96        24.3095   -4.5514   -5.3001 H         1 UNK         0.0793 
     97 H97        25.7221   -3.8106   -4.5582 H         1 UNK         0.0793 
     98 H98        24.4939   -4.5768   -3.5581 H         1 UNK         0.0793 
     99 H99        25.4064   -2.0182   -3.0070 H         1 UNK         0.3024 
    100 H100       24.5903    0.7383   -1.5959 H         1 UNK         0.1171 
    101 H101       22.7151    0.0491   -0.0934 H         1 UNK         0.0786 
    102 H102       24.2109    0.1733    0.8126 H         1 UNK         0.0786 
    103 H103       23.5865   -1.4112    0.3563 H         1 UNK         0.0786 
    104 H104       25.9539   -1.8519   -1.2652 H         1 UNK         0.2977 
    105 H105       26.6994   -1.4336   -6.1590 H         1 UNK         0.3127 
    106 H106       29.1651    0.0854   -5.6971 H         1 UNK         0.0770 
    107 H107       26.6070   -0.0284   -4.0187 H         1 UNK         0.0814 
    108 H108       28.1652    0.6128   -3.5402 H         1 UNK         0.0814 
    109 H109       27.9882   -1.1135   -3.8323 H         1 UNK         0.0814 
    110 H110       25.7111    0.7003   -6.4213 H         1 UNK         0.2983 
    111 H111       25.8363    3.5360   -6.5360 H         1 UNK         0.0947 
    112 H112       23.6892    3.3399   -7.7642 H         1 UNK         0.0806 
    113 H113       23.7085    2.2283   -6.4031 H         1 UNK         0.0806 
    114 H114       23.9650    1.6272   -8.0400 H         1 UNK         0.0806 
    115 H115       26.3707    1.0771   -9.0843 H         1 UNK         0.3000 
    116 H116       27.0410    2.9433  -11.1726 H         1 UNK         0.0850 
    117 H117       27.7889    0.8798  -12.3557 H         1 UNK         0.0810 
    118 H118       26.2217    0.6236  -11.6066 H         1 UNK         0.0810 
    119 H119       27.6755   -0.0416  -10.8625 H         1 UNK         0.0810 
    120 H120       28.7722    2.0887   -8.3880 H         1 UNK         0.3040 
    121 H121       30.8046    2.3310   -7.5992 H         1 UNK         0.0766 
    122 H122       32.2073    4.1900   -8.4180 H         1 UNK         0.0812 
    123 H123       30.5225    4.6839   -8.3678 H         1 UNK         0.0812 
    124 H124       31.2829    4.2865   -9.9086 H         1 UNK         0.0812 
    125 H125       30.5876   -0.0302   -8.7682 H         1 UNK         0.3205 
    126 H126       32.6744   -0.6731  -10.6258 H         1 UNK         0.0754 
    127 H127       32.1960   -3.0120   -9.9331 H         1 UNK         0.0769 
    128 H128       30.6942   -2.1395  -10.1996 H         1 UNK         0.0769 
    129 H129       31.2611   -2.4429   -8.5576 H         1 UNK         0.0769 
    130 H130       32.6679   -0.1879   -7.1479 H         1 UNK         0.2981 
    131 H131       35.2547   -1.3816   -6.6123 H         1 UNK         0.0541 
    132 H132       37.2903   -0.3994   -6.7500 H         1 UNK         0.3459 
    133 H133       37.5208    1.2839   -7.1445 H         1 UNK         0.3459 
    134 H134       35.0218   -0.1771   -4.3913 H         1 UNK         0.0612 
    135 H135       33.5160    0.5143   -4.9389 H         1 UNK         0.0612 
    136 H136       31.3396   -0.8949   -5.4192 H         1 UNK         0.0624 
    137 H137       31.4784   -0.5567   -3.7063 H         1 UNK         0.0624 
@<TRIPOS>BOND
     1    1    2 1    
     2    1   72 1    
     3    1   73 1    
     4    1   74 1    
     5    2    3 2    
     6    2    4 am   BACKBONE|DICT|INTERRES
     7    4    5 1    
     8    4   75 1    
     9    5    6 1    
    10    5   35 1    
    11    5   76 1    
    12    6    7 1    
    13    6   77 1    
    14    6   78 1    
    15    7    8 1    
    16    8    9 1    
    17    8   79 1    
    18    8   80 1    
    19    9   10 ar   
    20    9   14 ar   
    21   10   11 ar   
    22   10   81 1    
    23   11   12 ar   
    24   11   71 1    
    25   12   13 ar   
    26   12   82 1    
    27   13   14 ar   
    28   13   15 1    
    29   14   83 1    
    30   15   16 1    
    31   15   84 1    
    32   15   85 1    
    33   16   17 1    
    34   17   18 1    
    35   17   86 1    
    36   17   87 1    
    37   18   19 1    
    38   18   37 1    
    39   18   88 1    
    40   19   20 am   BACKBONE|DICT|INTERRES
    41   19   89 1    
    42   20   21 2    
    43   20   22 1    
    44   22   23 1    
    45   22   24 1    
    46   22   90 1    
    47   23   91 1    
    48   23   92 1    
    49   23   93 1    
    50   24   25 am   BACKBONE|DICT|INTERRES
    51   24   94 1    
    52   25   26 2    
    53   25   27 1    
    54   27   28 1    
    55   27   29 1    
    56   27   95 1    
    57   28   96 1    
    58   28   97 1    
    59   28   98 1    
    60   29   30 am   BACKBONE|DICT|INTERRES
    61   29   99 1    
    62   30   31 2    
    63   30   32 1    
    64   32   33 1    
    65   32   34 1    
    66   32  100 1    
    67   33  101 1    
    68   33  102 1    
    69   33  103 1    
    70   34   35 am   BACKBONE|DICT|INTERRES
    71   34  104 1    
    72   35   36 2    
    73   37   38 2    
    74   37   39 am   BACKBONE|DICT|INTERRES
    75   39   40 1    
    76   39  105 1    
    77   40   41 1    
    78   40   42 1    
    79   40  106 1    
    80   41  107 1    
    81   41  108 1    
    82   41  109 1    
    83   42   43 2    
    84   42   44 am   BACKBONE|DICT|INTERRES
    85   44   45 1    
    86   44  110 1    
    87   45   46 1    
    88   45   47 1    
    89   45  111 1    
    90   46  112 1    
    91   46  113 1    
    92   46  114 1    
    93   47   48 2    
    94   47   49 am   BACKBONE|DICT|INTERRES
    95   49   50 1    
    96   49  115 1    
    97   50   51 1    
    98   50   52 1    
    99   50  116 1    
   100   51  117 1    
   101   51  118 1    
   102   51  119 1    
   103   52   53 2    
   104   52   54 am   BACKBONE|DICT|INTERRES
   105   54   55 1    
   106   54  120 1    
   107   55   56 1    
   108   55   57 1    
   109   55  121 1    
   110   56  122 1    
   111   56  123 1    
   112   56  124 1    
   113   57   58 2    
   114   57   59 am   BACKBONE|DICT|INTERRES
   115   59   60 1    
   116   59  125 1    
   117   60   61 1    
   118   60   62 1    
   119   60  126 1    
   120   61  127 1    
   121   61  128 1    
   122   61  129 1    
   123   62   63 2    
   124   62   64 am   BACKBONE|DICT|INTERRES
   125   64   65 1    
   126   64  130 1    
   127   65   66 1    
   128   65   69 1    
   129   65  131 1    
   130   66   67 am   BACKBONE|DICT|INTERRES
   131   66   68 2    
   132   67  132 1    
   133   67  133 1    
   134   69   70 1    
   135   69  134 1    
   136   69  135 1    
   137   70   71 1    
   138   71  136 1    
   139   71  137 1    
@<TRIPOS>SUBSTRUCTURE
     1 UNK         1 GROUP             0       ****    0 ROOT    
