@<TRIPOS>MOLECULE
3R137
137   139    1
SMALL
USER_CHARGES


@<TRIPOS>ATOM
      1 CA         28.4063   -0.8659    3.8400 C.3       0 UNK        -0.2020 
      2 C          28.5119   -0.6725    2.3347 C.2       0 UNK         0.4855 
      3 O          29.0482    0.3404    1.8855 O.2       0 UNK        -0.5197 
      4 N          28.0104   -1.6396    1.5542 N.am      1 UNK        -0.4892 
      5 CA         27.9876   -1.6115    0.0866 C.3       1 UNK         0.0835 
      6 C6         27.6365   -3.0120   -0.4807 C.3       12 UNK        -0.0855 
      7 S7         27.8388   -3.1380   -2.2884 S.3       12 UNK        -0.2931 
      8 C8         29.4261   -4.0150   -2.4049 C.3       12 UNK         0.0378 
      9 C9         29.9075   -4.0834   -3.8455 C.ar      12 UNK        -0.0802 
     10 C10        31.0011   -3.3203   -4.2624 C.ar      12 UNK        -0.0944 
     11 C11        31.4523   -3.3815   -5.5853 C.ar      12 UNK        -0.0787 
     12 C12        30.7969   -4.2225   -6.4938 C.ar      12 UNK        -0.0862 
     13 C13        29.7091   -5.0031   -6.0840 C.ar      12 UNK        -0.0733 
     14 C14        29.2701   -4.9264   -4.7589 C.ar      12 UNK        -0.0832 
     15 C15        29.0392   -5.9762   -7.0481 C.3       12 UNK         0.0240 
     16 S16        28.0359   -5.1606   -8.3318 S.3       12 UNK        -0.2522 
     17 C17        26.7471   -4.2994   -7.3627 C.3       12 UNK        -0.0967 
     18 CA         26.5184   -2.8482   -7.8533 C.3       5 UNK         0.0660 
     19 N          25.2723   -2.2821   -7.3295 N.am      5 UNK        -0.4015 
     20 C          24.7746   -1.0816   -7.6629 C.2       4 UNK         0.4946 
     21 O          25.2769   -0.3486   -8.5146 O.2       4 UNK        -0.5353 
     22 CA         23.5330   -0.5848   -6.9010 C.3       4 UNK         0.0277 
     23 CB         22.2720   -0.7728   -7.7594 C.3       4 UNK        -0.1981 
     24 N          23.3210   -1.1996   -5.5843 N.am      4 UNK        -0.4209 
     25 C          24.1790   -1.1578   -4.5549 C.2       3 UNK         0.4942 
     26 O          25.3101   -0.6696   -4.6199 O.2       3 UNK        -0.5208 
     27 CA         23.7051   -1.8434   -3.2632 C.3       3 UNK         0.0250 
     28 CB         24.0463   -3.3425   -3.2995 C.3       3 UNK        -0.1990 
     29 N          24.3014   -1.2457   -2.0681 N.am      3 UNK        -0.4232 
     30 C          24.0115   -0.0270   -1.5886 C.2       2 UNK         0.4993 
     31 O          23.1697    0.7180   -2.0934 O.2       2 UNK        -0.5286 
     32 CA         24.7462    0.4361   -0.3130 C.3       2 UNK         0.0209 
     33 CB         23.7571    0.6034    0.8538 C.3       2 UNK        -0.1931 
     34 N          25.8188   -0.4704    0.1096 N.am      2 UNK        -0.4546 
     35 C          27.0381   -0.5157   -0.4454 C.2       1 UNK         0.5154 
     36 O          27.4167    0.2583   -1.3247 O.2       1 UNK        -0.5181 
     37 C          27.7375   -1.9423   -7.5761 C.2       5 UNK         0.5014 
     38 O          28.5660   -1.7718   -8.4705 O.2       5 UNK        -0.5248 
     39 N          27.8020   -1.3292   -6.3834 N.am      6 UNK        -0.4434 
     40 CA         28.8845   -0.4142   -6.0178 C.3       6 UNK         0.0363 
     41 CB         28.8420   -0.1115   -4.5140 C.3       6 UNK        -0.1936 
     42 C          28.8743    0.8843   -6.8379 C.2       6 UNK         0.5081 
     43 O          29.9413    1.3826   -7.1990 O.2       6 UNK        -0.5248 
     44 N          27.6709    1.3867   -7.1475 N.am      7 UNK        -0.4718 
     45 CA         27.4578    2.5444   -8.0158 C.3       7 UNK         0.0273 
     46 CB         26.0210    3.0641   -7.8473 C.3       7 UNK        -0.1935 
     47 C          27.7603    2.2229   -9.4878 C.2       7 UNK         0.5018 
     48 O          28.3936    3.0363  -10.1597 O.2       7 UNK        -0.5186 
     49 N          27.3310    1.0393   -9.9512 N.am      8 UNK        -0.4240 
     50 CA         27.5838    0.5255  -11.3002 C.3       8 UNK         0.0235 
     51 CB         26.7529   -0.7458  -11.5365 C.3       8 UNK        -0.2000 
     52 C          29.0747    0.2615  -11.5689 C.2       8 UNK         0.4941 
     53 O          29.5713    0.6381  -12.6312 O.2       8 UNK        -0.5273 
     54 N          29.7654   -0.3553  -10.5992 N.am      9 UNK        -0.4262 
     55 CA         31.2128   -0.5822  -10.6285 C.3       9 UNK         0.0264 
     56 CB         31.5836   -1.6190   -9.5555 C.3       9 UNK        -0.1955 
     57 C          32.0313    0.7043  -10.4214 C.2       9 UNK         0.5031 
     58 O          33.1806    0.7560  -10.8615 O.2       9 UNK        -0.5390 
     59 N          31.4363    1.6962   -9.7406 N.am      10 UNK        -0.4204 
     60 CA         32.0226    2.9701   -9.3086 C.3       10 UNK         0.0237 
     61 CB         32.3733    3.8602  -10.5198 C.3       10 UNK        -0.1985 
     62 C          33.1998    2.7731   -8.3328 C.2       10 UNK         0.4970 
     63 O          34.1736    3.5272   -8.3796 O.2       10 UNK        -0.4914 
     64 N          33.0894    1.7523   -7.4732 N.am      11 UNK        -0.4285 
     65 CA         34.1063    1.3695   -6.4830 C.3       11 UNK         0.1007 
     66 C          34.0621    2.1907   -5.1611 C.2       11 UNK         0.5703 
     67 N          33.0562    3.0270   -4.9304 N.am      11 UNK        -0.7361 
     68 O          34.9693    2.0815   -4.3394 O.2       11 UNK        -0.4986 
     69 C69        34.1111   -0.1635   -6.2382 C.3       12 UNK        -0.0947 
     70 S70        32.5213   -0.8070   -5.6225 S.3       12 UNK        -0.2240 
     71 C71        32.6762   -2.5786   -6.0158 C.3       12 UNK         0.0194 
     72 H72        27.9197   -1.8061    4.0990 H         1 UNK         0.0906 
     73 H73        29.3991   -0.8636    4.2891 H         1 UNK         0.0906 
     74 H74        27.8305   -0.0535    4.2827 H         1 UNK         0.0906 
     75 H75        27.5959   -2.4530    1.9877 H         1 UNK         0.3140 
     76 H76        28.9947   -1.3538   -0.2503 H         1 UNK         0.1085 
     77 H77        28.2630   -3.7703   -0.0079 H         1 UNK         0.0836 
     78 H78        26.6098   -3.2867   -0.2317 H         1 UNK         0.0836 
     79 H79        29.3155   -5.0246   -2.0063 H         1 UNK         0.0731 
     80 H80        30.1635   -3.5106   -1.7781 H         1 UNK         0.0731 
     81 H81        31.5067   -2.6762   -3.5560 H         1 UNK         0.1312 
     82 H82        31.1413   -4.2866   -7.5169 H         1 UNK         0.1406 
     83 H83        28.4329   -5.5273   -4.4300 H         1 UNK         0.1631 
     84 H84        28.4088   -6.6843   -6.5079 H         1 UNK         0.0717 
     85 H85        29.8090   -6.5737   -7.5383 H         1 UNK         0.0717 
     86 H86        25.8283   -4.8781   -7.4708 H         1 UNK         0.0934 
     87 H87        26.9857   -4.3149   -6.2985 H         1 UNK         0.0934 
     88 H88        26.3933   -2.8841   -8.9374 H         1 UNK         0.0739 
     89 H89        24.7912   -2.8158   -6.6219 H         1 UNK         0.3093 
     90 H90        23.6749    0.4853   -6.7356 H         1 UNK         0.0818 
     91 H91        21.3988   -0.3198   -7.2894 H         1 UNK         0.0819 
     92 H92        22.3906   -0.3009   -8.7362 H         1 UNK         0.0819 
     93 H93        22.0535   -1.8274   -7.9322 H         1 UNK         0.0819 
     94 H94        22.4249   -1.6442   -5.4420 H         1 UNK         0.3041 
     95 H95        22.6211   -1.7335   -3.1857 H         1 UNK         0.0784 
     96 H96        23.5465   -3.8394   -4.1319 H         1 UNK         0.0793 
     97 H97        25.1170   -3.5109   -3.4177 H         1 UNK         0.0793 
     98 H98        23.7265   -3.8462   -2.3870 H         1 UNK         0.0793 
     99 H99        25.0417   -1.7670   -1.6243 H         1 UNK         0.3024 
    100 H100       25.1809    1.4137   -0.5352 H         1 UNK         0.1171 
    101 H101       24.2549    0.9883    1.7442 H         1 UNK         0.0786 
    102 H102       22.9655    1.3095    0.5986 H         1 UNK         0.0786 
    103 H103       23.2785   -0.3408    1.1165 H         1 UNK         0.0786 
    104 H104       25.6001   -1.1223    0.8493 H         1 UNK         0.2977 
    105 H105       27.0515   -1.4440   -5.7116 H         1 UNK         0.3127 
    106 H106       29.8191   -0.9287   -6.2366 H         1 UNK         0.0770 
    107 H107       27.8923    0.3324   -4.2131 H         1 UNK         0.0814 
    108 H108       29.6345    0.5835   -4.2333 H         1 UNK         0.0814 
    109 H109       28.9904   -1.0168   -3.9278 H         1 UNK         0.0814 
    110 H110       26.8495    0.8889   -6.8342 H         1 UNK         0.2983 
    111 H111       28.1437    3.3348   -7.7018 H         1 UNK         0.0947 
    112 H112       25.8549    3.9505   -8.4610 H         1 UNK         0.0806 
    113 H113       25.8194    3.3445   -6.8134 H         1 UNK         0.0806 
    114 H114       25.2803    2.3210   -8.1439 H         1 UNK         0.0806 
    115 H115       26.7575    0.4596   -9.3416 H         1 UNK         0.3000 
    116 H116       27.2494    1.2860  -12.0091 H         1 UNK         0.0850 
    117 H117       26.8888   -1.1173  -12.5530 H         1 UNK         0.0810 
    118 H118       25.6882   -0.5554  -11.3990 H         1 UNK         0.0810 
    119 H119       27.0395   -1.5470  -10.8552 H         1 UNK         0.0810 
    120 H120       29.2663   -0.7121   -9.7840 H         1 UNK         0.3040 
    121 H121       31.4765   -0.9901  -11.6065 H         1 UNK         0.0766 
    122 H122       31.3232   -1.2699   -8.5553 H         1 UNK         0.0812 
    123 H123       32.6545   -1.8262   -9.5625 H         1 UNK         0.0812 
    124 H124       31.0671   -2.5646   -9.7214 H         1 UNK         0.0812 
    125 H125       30.5073    1.5170   -9.3797 H         1 UNK         0.3205 
    126 H126       31.2430    3.4807   -8.7412 H         1 UNK         0.0754 
    127 H127       32.6776    4.8568  -10.1976 H         1 UNK         0.0769 
    128 H128       31.5146    3.9820  -11.1803 H         1 UNK         0.0769 
    129 H129       33.1926    3.4439  -11.1066 H         1 UNK         0.0769 
    130 H130       32.2243    1.2272   -7.4481 H         1 UNK         0.2981 
    131 H131       35.0802    1.6027   -6.9176 H         1 UNK         0.0541 
    132 H132       32.3030    3.1114   -5.5938 H         1 UNK         0.3459 
    133 H133       33.0418    3.5594   -4.0752 H         1 UNK         0.3459 
    134 H134       34.8983   -0.4434   -5.5360 H         1 UNK         0.0612 
    135 H135       34.3500   -0.6735   -7.1728 H         1 UNK         0.0612 
    136 H136       33.5559   -2.9791   -5.5105 H         1 UNK         0.0624 
    137 H137       32.8528   -2.6903   -7.0860 H         1 UNK         0.0624 
@<TRIPOS>BOND
     1    1    2 1    
     2    1   72 1    
     3    1   73 1    
     4    1   74 1    
     5    2    3 2    
     6    2    4 am   BACKBONE|DICT|INTERRES
     7    4    5 1    
     8    4   75 1    
     9    5    6 1    
    10    5   35 1    
    11    5   76 1    
    12    6    7 1    
    13    6   77 1    
    14    6   78 1    
    15    7    8 1    
    16    8    9 1    
    17    8   79 1    
    18    8   80 1    
    19    9   10 ar   
    20    9   14 ar   
    21   10   11 ar   
    22   10   81 1    
    23   11   12 ar   
    24   11   71 1    
    25   12   13 ar   
    26   12   82 1    
    27   13   14 ar   
    28   13   15 1    
    29   14   83 1    
    30   15   16 1    
    31   15   84 1    
    32   15   85 1    
    33   16   17 1    
    34   17   18 1    
    35   17   86 1    
    36   17   87 1    
    37   18   19 1    
    38   18   37 1    
    39   18   88 1    
    40   19   20 am   BACKBONE|DICT|INTERRES
    41   19   89 1    
    42   20   21 2    
    43   20   22 1    
    44   22   23 1    
    45   22   24 1    
    46   22   90 1    
    47   23   91 1    
    48   23   92 1    
    49   23   93 1    
    50   24   25 am   BACKBONE|DICT|INTERRES
    51   24   94 1    
    52   25   26 2    
    53   25   27 1    
    54   27   28 1    
    55   27   29 1    
    56   27   95 1    
    57   28   96 1    
    58   28   97 1    
    59   28   98 1    
    60   29   30 am   BACKBONE|DICT|INTERRES
    61   29   99 1    
    62   30   31 2    
    63   30   32 1    
    64   32   33 1    
    65   32   34 1    
    66   32  100 1    
    67   33  101 1    
    68   33  102 1    
    69   33  103 1    
    70   34   35 am   BACKBONE|DICT|INTERRES
    71   34  104 1    
    72   35   36 2    
    73   37   38 2    
    74   37   39 am   BACKBONE|DICT|INTERRES
    75   39   40 1    
    76   39  105 1    
    77   40   41 1    
    78   40   42 1    
    79   40  106 1    
    80   41  107 1    
    81   41  108 1    
    82   41  109 1    
    83   42   43 2    
    84   42   44 am   BACKBONE|DICT|INTERRES
    85   44   45 1    
    86   44  110 1    
    87   45   46 1    
    88   45   47 1    
    89   45  111 1    
    90   46  112 1    
    91   46  113 1    
    92   46  114 1    
    93   47   48 2    
    94   47   49 am   BACKBONE|DICT|INTERRES
    95   49   50 1    
    96   49  115 1    
    97   50   51 1    
    98   50   52 1    
    99   50  116 1    
   100   51  117 1    
   101   51  118 1    
   102   51  119 1    
   103   52   53 2    
   104   52   54 am   BACKBONE|DICT|INTERRES
   105   54   55 1    
   106   54  120 1    
   107   55   56 1    
   108   55   57 1    
   109   55  121 1    
   110   56  122 1    
   111   56  123 1    
   112   56  124 1    
   113   57   58 2    
   114   57   59 am   BACKBONE|DICT|INTERRES
   115   59   60 1    
   116   59  125 1    
   117   60   61 1    
   118   60   62 1    
   119   60  126 1    
   120   61  127 1    
   121   61  128 1    
   122   61  129 1    
   123   62   63 2    
   124   62   64 am   BACKBONE|DICT|INTERRES
   125   64   65 1    
   126   64  130 1    
   127   65   66 1    
   128   65   69 1    
   129   65  131 1    
   130   66   67 am   BACKBONE|DICT|INTERRES
   131   66   68 2    
   132   67  132 1    
   133   67  133 1    
   134   69   70 1    
   135   69  134 1    
   136   69  135 1    
   137   70   71 1    
   138   71  136 1    
   139   71  137 1    
@<TRIPOS>SUBSTRUCTURE
     1 UNK         1 GROUP             0       ****    0 ROOT    
