@<TRIPOS>MOLECULE
3R137
137   139    1
SMALL
USER_CHARGES


@<TRIPOS>ATOM
      1 CA         26.1231   -6.6949   -4.3756 C.3       0 UNK        -0.2020 
      2 C          25.9052   -5.7485   -3.2051 C.2       0 UNK         0.4855 
      3 O          24.8169   -5.1911   -3.0607 O.2       0 UNK        -0.5197 
      4 N          26.9283   -5.5640   -2.3628 N.am      1 UNK        -0.4892 
      5 CA         26.9368   -4.6047   -1.2547 C.3       1 UNK         0.0835 
      6 C6         28.0351   -4.9118   -0.1957 C.3       12 UNK        -0.0855 
      7 S7         29.6148   -5.5789   -0.8402 S.3       12 UNK        -0.2931 
      8 C8         30.8326   -4.3075   -0.3731 C.3       12 UNK         0.0378 
      9 C9         31.0640   -3.3268   -1.5104 C.ar      12 UNK        -0.0802 
     10 C10        31.9283   -3.6665   -2.5553 C.ar      12 UNK        -0.0944 
     11 C11        32.1285   -2.7880   -3.6221 C.ar      12 UNK        -0.0787 
     12 C12        31.4590   -1.5604   -3.6343 C.ar      12 UNK        -0.0862 
     13 C13        30.5906   -1.2038   -2.5950 C.ar      12 UNK        -0.0733 
     14 C14        30.4081   -2.0929   -1.5307 C.ar      12 UNK        -0.0832 
     15 C15        29.7644    0.0806   -2.6277 C.3       12 UNK         0.0240 
     16 S16        30.4528    1.4341   -3.6401 S.3       12 UNK        -0.2522 
     17 C17        28.9367    2.3706   -4.0375 C.3       12 UNK        -0.0967 
     18 CA         28.3832    1.9806   -5.4292 C.3       5 UNK         0.0660 
     19 N          27.9584    0.5826   -5.4975 N.am      5 UNK        -0.4015 
     20 C          27.9393   -0.1431   -6.6207 C.2       4 UNK         0.4946 
     21 O          28.3302    0.2805   -7.7097 O.2       4 UNK        -0.5353 
     22 CA         27.3750   -1.5709   -6.5202 C.3       4 UNK         0.0277 
     23 CB         28.5003   -2.5673   -6.2076 C.3       4 UNK        -0.1981 
     24 N          26.3110   -1.7014   -5.5192 N.am      4 UNK        -0.4209 
     25 C          25.1097   -1.1119   -5.6291 C.2       3 UNK         0.4942 
     26 O          24.7745   -0.4336   -6.5970 O.2       3 UNK        -0.5208 
     27 CA         24.1300   -1.2416   -4.4506 C.3       3 UNK         0.0250 
     28 CB         23.1999   -2.4458   -4.6595 C.3       3 UNK        -0.1990 
     29 N          24.7793   -1.3382   -3.1426 N.am      3 UNK        -0.4232 
     30 C          25.6429   -0.4472   -2.6326 C.2       2 UNK         0.4993 
     31 O          25.9831    0.5875   -3.2115 O.2       2 UNK        -0.5286 
     32 CA         26.2775   -0.7945   -1.2729 C.3       2 UNK         0.0209 
     33 CB         25.5000   -0.1106   -0.1378 C.3       2 UNK        -0.1931 
     34 N          26.3841   -2.2339   -0.9905 N.am      2 UNK        -0.4546 
     35 C          26.9826   -3.1501   -1.7691 C.2       1 UNK         0.5154 
     36 O          27.5146   -2.8836   -2.8505 O.2       1 UNK        -0.5181 
     37 C          27.2309    2.8990   -5.8698 C.2       5 UNK         0.5014 
     38 O          27.4759    3.8421   -6.6220 O.2       5 UNK        -0.5248 
     39 N          25.9942    2.5856   -5.4493 N.am      6 UNK        -0.4434 
     40 CA         24.7755    3.3024   -5.8454 C.3       6 UNK         0.0363 
     41 CB         23.5766    2.7698   -5.0463 C.3       6 UNK        -0.1936 
     42 C          24.4916    3.2336   -7.3584 C.2       6 UNK         0.5081 
     43 O          24.0986    4.2409   -7.9466 O.2       6 UNK        -0.5248 
     44 N          24.7293    2.0633   -7.9676 N.am      7 UNK        -0.4718 
     45 CA         24.6283    1.8287   -9.4127 C.3       7 UNK         0.0273 
     46 CB         24.4723    0.3189   -9.6625 C.3       7 UNK        -0.1935 
     47 C          25.8222    2.3780  -10.2176 C.2       7 UNK         0.5018 
     48 O          25.7787    2.3287  -11.4475 O.2       7 UNK        -0.5186 
     49 N          26.8632    2.8665   -9.5259 N.am      8 UNK        -0.4240 
     50 CA         28.1185    3.4043  -10.0611 C.3       8 UNK         0.0235 
     51 CB         27.8696    4.6851  -10.8869 C.3       8 UNK        -0.2000 
     52 C          28.9771    2.3624  -10.8064 C.2       8 UNK         0.4941 
     53 O          29.7478    2.7325  -11.6942 O.2       8 UNK        -0.5273 
     54 N          28.8702    1.0858  -10.4081 N.am      9 UNK        -0.4262 
     55 CA         29.8037    0.0251  -10.7984 C.3       9 UNK         0.0264 
     56 CB         29.1518   -1.3524  -10.5925 C.3       9 UNK        -0.1955 
     57 C          31.1129    0.1407   -9.9997 C.2       9 UNK         0.5031 
     58 O          32.1855   -0.1074  -10.5519 O.2       9 UNK        -0.5390 
     59 N          30.9926    0.5464   -8.7258 N.am      10 UNK        -0.4204 
     60 CA         32.0281    0.9568   -7.7674 C.3       10 UNK         0.0237 
     61 CB         32.7887    2.1957   -8.2774 C.3       10 UNK        -0.1985 
     62 C          33.0073   -0.1384   -7.3096 C.2       10 UNK         0.4970 
     63 O          33.4043   -0.1022   -6.1463 O.2       10 UNK        -0.4914 
     64 N          33.3716   -1.0690   -8.2037 N.am      11 UNK        -0.4285 
     65 CA         34.2332   -2.2500   -7.9899 C.3       11 UNK         0.1007 
     66 C          35.5860   -2.0058   -7.2484 C.2       11 UNK         0.5703 
     67 N          36.1914   -0.8313   -7.3777 N.am      11 UNK        -0.7361 
     68 O          36.1176   -2.8908   -6.5816 O.2       11 UNK        -0.4986 
     69 C69        33.4557   -3.5365   -7.5525 C.3       12 UNK        -0.0947 
     70 S70        32.1233   -3.3356   -6.3230 S.3       12 UNK        -0.2240 
     71 C71        33.0537   -3.1638   -4.7707 C.3       12 UNK         0.0194 
     72 H72        25.9884   -6.1622   -5.3167 H         1 UNK         0.0906 
     73 H73        27.1242   -7.1257   -4.3700 H         1 UNK         0.0906 
     74 H74        25.4018   -7.5107   -4.3385 H         1 UNK         0.0906 
     75 H75        27.8166   -6.0157   -2.5333 H         1 UNK         0.3140 
     76 H76        25.9749   -4.7133   -0.7474 H         1 UNK         0.1085 
     77 H77        27.6477   -5.6739    0.4825 H         1 UNK         0.0836 
     78 H78        28.2221   -4.0468    0.4432 H         1 UNK         0.0836 
     79 H79        31.7740   -4.8024   -0.1291 H         1 UNK         0.0731 
     80 H80        30.5240   -3.7905    0.5365 H         1 UNK         0.0731 
     81 H81        32.4310   -4.6241   -2.5438 H         1 UNK         0.1312 
     82 H82        31.5978   -0.9018   -4.4792 H         1 UNK         0.1406 
     83 H83        29.7246   -1.8401   -0.7319 H         1 UNK         0.1631 
     84 H84        29.6126    0.4571   -1.6151 H         1 UNK         0.0717 
     85 H85        28.7841   -0.1886   -3.0165 H         1 UNK         0.0717 
     86 H86        28.1889    2.2273   -3.2550 H         1 UNK         0.0934 
     87 H87        29.1947    3.4313   -4.0171 H         1 UNK         0.0934 
     88 H88        29.1912    2.1290   -6.1495 H         1 UNK         0.0739 
     89 H89        27.5556    0.1919   -4.6562 H         1 UNK         0.3093 
     90 H90        26.9535   -1.8249   -7.4951 H         1 UNK         0.0818 
     91 H91        28.9651   -2.3665   -5.2409 H         1 UNK         0.0819 
     92 H92        28.1326   -3.5933   -6.1932 H         1 UNK         0.0819 
     93 H93        29.2843   -2.5147   -6.9640 H         1 UNK         0.0819 
     94 H94        26.5344   -2.2185   -4.6748 H         1 UNK         0.3041 
     95 H95        23.5144   -0.3420   -4.4324 H         1 UNK         0.0784 
     96 H96        22.6511   -2.3543   -5.5980 H         1 UNK         0.0793 
     97 H97        23.7560   -3.3826   -4.6999 H         1 UNK         0.0793 
     98 H98        22.4623   -2.5255   -3.8607 H         1 UNK         0.0793 
     99 H99        24.5842   -2.1701   -2.6041 H         1 UNK         0.3024 
    100 H100       27.2882   -0.3882   -1.2744 H         1 UNK         0.1171 
    101 H101       25.9952   -0.2485    0.8236 H         1 UNK         0.0786 
    102 H102       25.4252    0.9647   -0.3083 H         1 UNK         0.0786 
    103 H103       24.4839   -0.4980   -0.0525 H         1 UNK         0.0786 
    104 H104       25.9644   -2.5420   -0.1245 H         1 UNK         0.2977 
    105 H105       25.8827    1.8154   -4.7962 H         1 UNK         0.3127 
    106 H106       24.9179    4.3529   -5.5828 H         1 UNK         0.0770 
    107 H107       23.3274    1.7486   -5.3317 H         1 UNK         0.0814 
    108 H108       23.7691    2.7854   -3.9733 H         1 UNK         0.0814 
    109 H109       22.6905    3.3795   -5.2273 H         1 UNK         0.0814 
    110 H110       24.9644    1.2523   -7.3984 H         1 UNK         0.2983 
    111 H111       23.7322    2.3311   -9.7833 H         1 UNK         0.0947 
    112 H112       24.3401    0.1058  -10.7241 H         1 UNK         0.0806 
    113 H113       23.6015   -0.0812   -9.1429 H         1 UNK         0.0806 
    114 H114       25.3483   -0.2365   -9.3243 H         1 UNK         0.0806 
    115 H115       26.7877    2.8792   -8.5161 H         1 UNK         0.3000 
    116 H116       28.7069    3.6935   -9.1889 H         1 UNK         0.0850 
    117 H117       28.8100    5.1741  -11.1439 H         1 UNK         0.0810 
    118 H118       27.2738    5.4069  -10.3282 H         1 UNK         0.0810 
    119 H119       27.3504    4.4714  -11.8215 H         1 UNK         0.0810 
    120 H120       28.2580    0.8760   -9.6260 H         1 UNK         0.3040 
    121 H121       30.0416    0.1345  -11.8588 H         1 UNK         0.0766 
    122 H122       28.2275   -1.4417  -11.1633 H         1 UNK         0.0812 
    123 H123       28.9183   -1.5449   -9.5453 H         1 UNK         0.0812 
    124 H124       29.8178   -2.1490  -10.9269 H         1 UNK         0.0812 
    125 H125       30.0409    0.5986   -8.3663 H         1 UNK         0.3205 
    126 H126       31.4801    1.2591   -6.8733 H         1 UNK         0.0754 
    127 H127       33.4911    2.5587   -7.5258 H         1 UNK         0.0769 
    128 H128       32.1049    3.0140   -8.5036 H         1 UNK         0.0769 
    129 H129       33.3616    1.9787   -9.1796 H         1 UNK         0.0769 
    130 H130       33.0215   -0.9417   -9.1502 H         1 UNK         0.2981 
    131 H131       34.5852   -2.4772   -8.9968 H         1 UNK         0.0541 
    132 H132       35.7672   -0.0946   -7.9178 H         1 UNK         0.3459 
    133 H133       37.0689   -0.6743   -6.9082 H         1 UNK         0.3459 
    134 H134       34.1273   -4.3288   -7.2187 H         1 UNK         0.0612 
    135 H135       32.9683   -3.9487   -8.4371 H         1 UNK         0.0612 
    136 H136       33.5803   -4.0967   -4.5648 H         1 UNK         0.0624 
    137 H137       33.8156   -2.3921   -4.8769 H         1 UNK         0.0624 
@<TRIPOS>BOND
     1    1    2 1    
     2    1   72 1    
     3    1   73 1    
     4    1   74 1    
     5    2    3 2    
     6    2    4 am   BACKBONE|DICT|INTERRES
     7    4    5 1    
     8    4   75 1    
     9    5    6 1    
    10    5   35 1    
    11    5   76 1    
    12    6    7 1    
    13    6   77 1    
    14    6   78 1    
    15    7    8 1    
    16    8    9 1    
    17    8   79 1    
    18    8   80 1    
    19    9   10 ar   
    20    9   14 ar   
    21   10   11 ar   
    22   10   81 1    
    23   11   12 ar   
    24   11   71 1    
    25   12   13 ar   
    26   12   82 1    
    27   13   14 ar   
    28   13   15 1    
    29   14   83 1    
    30   15   16 1    
    31   15   84 1    
    32   15   85 1    
    33   16   17 1    
    34   17   18 1    
    35   17   86 1    
    36   17   87 1    
    37   18   19 1    
    38   18   37 1    
    39   18   88 1    
    40   19   20 am   BACKBONE|DICT|INTERRES
    41   19   89 1    
    42   20   21 2    
    43   20   22 1    
    44   22   23 1    
    45   22   24 1    
    46   22   90 1    
    47   23   91 1    
    48   23   92 1    
    49   23   93 1    
    50   24   25 am   BACKBONE|DICT|INTERRES
    51   24   94 1    
    52   25   26 2    
    53   25   27 1    
    54   27   28 1    
    55   27   29 1    
    56   27   95 1    
    57   28   96 1    
    58   28   97 1    
    59   28   98 1    
    60   29   30 am   BACKBONE|DICT|INTERRES
    61   29   99 1    
    62   30   31 2    
    63   30   32 1    
    64   32   33 1    
    65   32   34 1    
    66   32  100 1    
    67   33  101 1    
    68   33  102 1    
    69   33  103 1    
    70   34   35 am   BACKBONE|DICT|INTERRES
    71   34  104 1    
    72   35   36 2    
    73   37   38 2    
    74   37   39 am   BACKBONE|DICT|INTERRES
    75   39   40 1    
    76   39  105 1    
    77   40   41 1    
    78   40   42 1    
    79   40  106 1    
    80   41  107 1    
    81   41  108 1    
    82   41  109 1    
    83   42   43 2    
    84   42   44 am   BACKBONE|DICT|INTERRES
    85   44   45 1    
    86   44  110 1    
    87   45   46 1    
    88   45   47 1    
    89   45  111 1    
    90   46  112 1    
    91   46  113 1    
    92   46  114 1    
    93   47   48 2    
    94   47   49 am   BACKBONE|DICT|INTERRES
    95   49   50 1    
    96   49  115 1    
    97   50   51 1    
    98   50   52 1    
    99   50  116 1    
   100   51  117 1    
   101   51  118 1    
   102   51  119 1    
   103   52   53 2    
   104   52   54 am   BACKBONE|DICT|INTERRES
   105   54   55 1    
   106   54  120 1    
   107   55   56 1    
   108   55   57 1    
   109   55  121 1    
   110   56  122 1    
   111   56  123 1    
   112   56  124 1    
   113   57   58 2    
   114   57   59 am   BACKBONE|DICT|INTERRES
   115   59   60 1    
   116   59  125 1    
   117   60   61 1    
   118   60   62 1    
   119   60  126 1    
   120   61  127 1    
   121   61  128 1    
   122   61  129 1    
   123   62   63 2    
   124   62   64 am   BACKBONE|DICT|INTERRES
   125   64   65 1    
   126   64  130 1    
   127   65   66 1    
   128   65   69 1    
   129   65  131 1    
   130   66   67 am   BACKBONE|DICT|INTERRES
   131   66   68 2    
   132   67  132 1    
   133   67  133 1    
   134   69   70 1    
   135   69  134 1    
   136   69  135 1    
   137   70   71 1    
   138   71  136 1    
   139   71  137 1    
@<TRIPOS>SUBSTRUCTURE
     1 UNK         1 GROUP             0       ****    0 ROOT    
