@<TRIPOS>MOLECULE
3R137
137   139    1
SMALL
USER_CHARGES


@<TRIPOS>ATOM
      1 CA         22.9089   -5.8972   -1.4735 C.3       0 UNK        -0.2020 
      2 C          23.9880   -5.0757   -0.7849 C.2       0 UNK         0.4855 
      3 O          23.7173   -4.4341    0.2308 O.2       0 UNK        -0.5197 
      4 N          25.2087   -5.0731   -1.3365 N.am      1 UNK        -0.4892 
      5 CA         26.3735   -4.3307   -0.8372 C.3       1 UNK         0.0835 
      6 C6         27.6895   -5.0036   -1.3169 C.3       12 UNK        -0.0855 
      7 S7         29.0969   -4.6807   -0.2061 S.3       12 UNK        -0.2931 
      8 C8         30.5099   -4.7616   -1.3670 C.3       12 UNK         0.0378 
      9 C9         30.7688   -3.4836   -2.1672 C.ar      12 UNK        -0.0802 
     10 C10        31.3901   -3.5678   -3.4183 C.ar      12 UNK        -0.0944 
     11 C11        31.6961   -2.4132   -4.1484 C.ar      12 UNK        -0.0787 
     12 C12        31.3575   -1.1594   -3.6270 C.ar      12 UNK        -0.0862 
     13 C13        30.7531   -1.0566   -2.3693 C.ar      12 UNK        -0.0733 
     14 C14        30.4690   -2.2200   -1.6481 C.ar      12 UNK        -0.0832 
     15 C15        30.4714    0.3041   -1.7428 C.3       12 UNK         0.0240 
     16 S16        28.7384    0.4678   -1.2006 S.3       12 UNK        -0.2522 
     17 C17        28.0057    1.5583   -2.4611 C.3       12 UNK        -0.0967 
     18 CA         28.1728    1.0987   -3.9305 C.3       5 UNK         0.0660 
     19 N          27.7435   -0.2874   -4.1753 N.am      5 UNK        -0.4015 
     20 C          27.8889   -0.9283   -5.3480 C.2       4 UNK         0.4946 
     21 O          28.4672   -0.4422   -6.3174 O.2       4 UNK        -0.5353 
     22 CA         27.2116   -2.2977   -5.5069 C.3       4 UNK         0.0277 
     23 CB         28.1002   -3.4286   -4.9716 C.3       4 UNK        -0.1981 
     24 N          25.9170   -2.3177   -4.8286 N.am      4 UNK        -0.4209 
     25 C          24.7792   -1.8471   -5.3608 C.2       3 UNK         0.4942 
     26 O          24.6845   -1.4421   -6.5189 O.2       3 UNK        -0.5208 
     27 CA         23.5356   -1.8017   -4.4514 C.3       3 UNK         0.0250 
     28 CB         22.6742   -3.0582   -4.6574 C.3       3 UNK        -0.1990 
     29 N          23.8569   -1.6703   -3.0286 N.am      3 UNK        -0.4232 
     30 C          24.4584   -0.6106   -2.4696 C.2       2 UNK         0.4993 
     31 O          24.7322    0.4205   -3.0828 O.2       2 UNK        -0.5286 
     32 CA         24.8946   -0.7631   -1.0003 C.3       2 UNK         0.0209 
     33 CB         23.7881   -0.2732   -0.0541 C.3       2 UNK        -0.1931 
     34 N          25.2693   -2.1399   -0.6476 N.am      2 UNK        -0.4546 
     35 C          26.2546   -2.8399   -1.2286 C.2       1 UNK         0.5154 
     36 O          26.9650   -2.3685   -2.1162 O.2       1 UNK        -0.5181 
     37 C          27.4628    2.1027   -4.8620 C.2       5 UNK         0.5014 
     38 O          28.0973    3.0394   -5.3459 O.2       5 UNK        -0.5248 
     39 N          26.1737    1.8663   -5.1431 N.am      6 UNK        -0.4434 
     40 CA         25.3825    2.6037   -6.1332 C.3       6 UNK         0.0363 
     41 CB         23.9116    2.1722   -6.0187 C.3       6 UNK        -0.1936 
     42 C          25.8826    2.4461   -7.5860 C.2       6 UNK         0.5081 
     43 O          25.4947    3.2449   -8.4387 O.2       6 UNK        -0.5248 
     44 N          26.7324    1.4435   -7.8447 N.am      7 UNK        -0.4718 
     45 CA         27.3563    1.1526   -9.1327 C.3       7 UNK         0.0273 
     46 CB         26.9888   -0.2854   -9.5435 C.3       7 UNK        -0.1935 
     47 C          28.8822    1.3517   -9.0744 C.2       7 UNK         0.5018 
     48 O          29.5921    0.7461   -9.8784 O.2       7 UNK        -0.5186 
     49 N          29.3812    2.2025   -8.1609 N.am      8 UNK        -0.4240 
     50 CA         30.8107    2.4833   -7.9352 C.3       8 UNK         0.0235 
     51 CB         30.9702    3.4266   -6.7315 C.3       8 UNK        -0.2000 
     52 C          31.5999    3.0183   -9.1482 C.2       8 UNK         0.4941 
     53 O          32.8301    2.9986   -9.1159 O.2       8 UNK        -0.5273 
     54 N          30.9025    3.4601  -10.2038 N.am      9 UNK        -0.4262 
     55 CA         31.4857    3.7564  -11.5147 C.3       9 UNK         0.0264 
     56 CB         30.4469    4.4957  -12.3737 C.3       9 UNK        -0.1955 
     57 C          31.9945    2.4980  -12.2494 C.2       9 UNK         0.5031 
     58 O          32.9014    2.6182  -13.0747 O.2       9 UNK        -0.5390 
     59 N          31.4088    1.3302  -11.9476 N.am      10 UNK        -0.4204 
     60 CA         31.7750    0.0269  -12.5023 C.3       10 UNK         0.0237 
     61 CB         30.5245   -0.6355  -13.1054 C.3       10 UNK        -0.1985 
     62 C          32.4016   -0.8850  -11.4357 C.2       10 UNK         0.4970 
     63 O          33.3657   -1.5848  -11.7478 O.2       10 UNK        -0.4914 
     64 N          31.8489   -0.8793  -10.2133 N.am      11 UNK        -0.4285 
     65 CA         32.3280   -1.6701   -9.0706 C.3       11 UNK         0.1007 
     66 C          33.7525   -1.2509   -8.6133 C.2       11 UNK         0.5703 
     67 N          34.6490   -2.2052   -8.4014 N.am      11 UNK        -0.7361 
     68 O          34.0355   -0.0730   -8.4106 O.2       11 UNK        -0.4986 
     69 C69        31.3132   -1.6360   -7.8940 C.3       12 UNK        -0.0947 
     70 S70        31.4397   -3.1170   -6.8372 S.3       12 UNK        -0.2240 
     71 C71        32.4696   -2.5255   -5.4565 C.3       12 UNK         0.0194 
     72 H72        23.2847   -6.4036   -2.3625 H         1 UNK         0.0906 
     73 H73        22.5219   -6.6535   -0.7911 H         1 UNK         0.0906 
     74 H74        22.0817   -5.2544   -1.7737 H         1 UNK         0.0906 
     75 H75        25.3655   -5.6075   -2.1797 H         1 UNK         0.3140 
     76 H76        26.3535   -4.3772    0.2544 H         1 UNK         0.1085 
     77 H77        27.9401   -4.7259   -2.3407 H         1 UNK         0.0836 
     78 H78        27.5663   -6.0878   -1.3345 H         1 UNK         0.0836 
     79 H79        30.3630   -5.6072   -2.0410 H         1 UNK         0.0731 
     80 H80        31.4093   -4.9828   -0.7912 H         1 UNK         0.0731 
     81 H81        31.6619   -4.5352   -3.8185 H         1 UNK         0.1312 
     82 H82        31.6017   -0.2642   -4.1823 H         1 UNK         0.1406 
     83 H83        30.0199   -2.1308   -0.6690 H         1 UNK         0.1631 
     84 H84        30.7396    1.1196   -2.4153 H         1 UNK         0.0717 
     85 H85        31.1136    0.4151   -0.8682 H         1 UNK         0.0717 
     86 H86        26.9486    1.6690   -2.2134 H         1 UNK         0.0934 
     87 H87        28.4436    2.5500   -2.3290 H         1 UNK         0.0934 
     88 H88        29.2325    1.1419   -4.1862 H         1 UNK         0.0739 
     89 H89        27.3345   -0.7861   -3.3922 H         1 UNK         0.3093 
     90 H90        27.0519   -2.4768   -6.5726 H         1 UNK         0.0818 
     91 H91        28.5144   -3.1909   -3.9927 H         1 UNK         0.0819 
     92 H92        27.5574   -4.3704   -4.8955 H         1 UNK         0.0819 
     93 H93        28.9425   -3.5981   -5.6382 H         1 UNK         0.0819 
     94 H94        25.9391   -2.5695   -3.8476 H         1 UNK         0.3041 
     95 H95        22.9483   -0.9283   -4.7430 H         1 UNK         0.0784 
     96 H96        22.3934   -3.1700   -5.7058 H         1 UNK         0.0793 
     97 H97        23.2039   -3.9654   -4.3638 H         1 UNK         0.0793 
     98 H98        21.7502   -3.0060   -4.0811 H         1 UNK         0.0793 
     99 H99        23.6640   -2.4676   -2.4410 H         1 UNK         0.3024 
    100 H100       25.7750   -0.1340   -0.8563 H         1 UNK         0.1171 
    101 H101       22.8900   -0.8877   -0.1289 H         1 UNK         0.0786 
    102 H102       23.5025    0.7539   -0.2866 H         1 UNK         0.0786 
    103 H103       24.1198   -0.2883    0.9843 H         1 UNK         0.0786 
    104 H104       24.6718   -2.6324    0.0090 H         1 UNK         0.2977 
    105 H105       25.6922    1.1382   -4.6211 H         1 UNK         0.3127 
    106 H106       25.4478    3.6647   -5.8837 H         1 UNK         0.0770 
    107 H107       23.7813    1.1195   -6.2702 H         1 UNK         0.0814 
    108 H108       23.2811    2.7492   -6.6965 H         1 UNK         0.0814 
    109 H109       23.5286    2.3260   -5.0096 H         1 UNK         0.0814 
    110 H110       27.0414    0.8504   -7.0813 H         1 UNK         0.2983 
    111 H111       26.9815    1.8319   -9.9008 H         1 UNK         0.0947 
    112 H112       27.3646   -0.5201  -10.5402 H         1 UNK         0.0806 
    113 H113       25.9083   -0.4282   -9.5635 H         1 UNK         0.0806 
    114 H114       27.4094   -1.0187   -8.8541 H         1 UNK         0.0806 
    115 H115       28.7354    2.6319   -7.5095 H         1 UNK         0.3000 
    116 H116       31.2813    1.5349   -7.6737 H         1 UNK         0.0850 
    117 H117       32.0118    3.7185   -6.5891 H         1 UNK         0.0810 
    118 H118       30.6532    2.9420   -5.8087 H         1 UNK         0.0810 
    119 H119       30.3876    4.3403   -6.8533 H         1 UNK         0.0810 
    120 H120       29.8955    3.4730  -10.1365 H         1 UNK         0.3040 
    121 H121       32.3409    4.4190  -11.3649 H         1 UNK         0.0766 
    122 H122       30.1290    5.4252  -11.9009 H         1 UNK         0.0812 
    123 H123       29.5597    3.8862  -12.5505 H         1 UNK         0.0812 
    124 H124       30.8623    4.7560  -13.3484 H         1 UNK         0.0812 
    125 H125       30.6871    1.3169  -11.2301 H         1 UNK         0.3205 
    126 H126       32.5095    0.1481  -13.3013 H         1 UNK         0.0754 
    127 H127       30.7638   -1.6136  -13.5251 H         1 UNK         0.0769 
    128 H128       30.1081   -0.0304  -13.9109 H         1 UNK         0.0769 
    129 H129       29.7422   -0.7814  -12.3590 H         1 UNK         0.0769 
    130 H130       31.0390   -0.2895  -10.0392 H         1 UNK         0.2981 
    131 H131       32.3802   -2.6986   -9.4345 H         1 UNK         0.0541 
    132 H132       34.4207   -3.1754   -8.5517 H         1 UNK         0.3459 
    133 H133       35.5737   -1.9494   -8.0932 H         1 UNK         0.3459 
    134 H134       31.4062   -0.7308   -7.2931 H         1 UNK         0.0612 
    135 H135       30.2927   -1.6250   -8.2809 H         1 UNK         0.0612 
    136 H136       32.9352   -1.5721   -5.7091 H         1 UNK         0.0624 
    137 H137       33.2934   -3.2277   -5.3215 H         1 UNK         0.0624 
@<TRIPOS>BOND
     1    1    2 1    
     2    1   72 1    
     3    1   73 1    
     4    1   74 1    
     5    2    3 2    
     6    2    4 am   BACKBONE|DICT|INTERRES
     7    4    5 1    
     8    4   75 1    
     9    5    6 1    
    10    5   35 1    
    11    5   76 1    
    12    6    7 1    
    13    6   77 1    
    14    6   78 1    
    15    7    8 1    
    16    8    9 1    
    17    8   79 1    
    18    8   80 1    
    19    9   10 ar   
    20    9   14 ar   
    21   10   11 ar   
    22   10   81 1    
    23   11   12 ar   
    24   11   71 1    
    25   12   13 ar   
    26   12   82 1    
    27   13   14 ar   
    28   13   15 1    
    29   14   83 1    
    30   15   16 1    
    31   15   84 1    
    32   15   85 1    
    33   16   17 1    
    34   17   18 1    
    35   17   86 1    
    36   17   87 1    
    37   18   19 1    
    38   18   37 1    
    39   18   88 1    
    40   19   20 am   BACKBONE|DICT|INTERRES
    41   19   89 1    
    42   20   21 2    
    43   20   22 1    
    44   22   23 1    
    45   22   24 1    
    46   22   90 1    
    47   23   91 1    
    48   23   92 1    
    49   23   93 1    
    50   24   25 am   BACKBONE|DICT|INTERRES
    51   24   94 1    
    52   25   26 2    
    53   25   27 1    
    54   27   28 1    
    55   27   29 1    
    56   27   95 1    
    57   28   96 1    
    58   28   97 1    
    59   28   98 1    
    60   29   30 am   BACKBONE|DICT|INTERRES
    61   29   99 1    
    62   30   31 2    
    63   30   32 1    
    64   32   33 1    
    65   32   34 1    
    66   32  100 1    
    67   33  101 1    
    68   33  102 1    
    69   33  103 1    
    70   34   35 am   BACKBONE|DICT|INTERRES
    71   34  104 1    
    72   35   36 2    
    73   37   38 2    
    74   37   39 am   BACKBONE|DICT|INTERRES
    75   39   40 1    
    76   39  105 1    
    77   40   41 1    
    78   40   42 1    
    79   40  106 1    
    80   41  107 1    
    81   41  108 1    
    82   41  109 1    
    83   42   43 2    
    84   42   44 am   BACKBONE|DICT|INTERRES
    85   44   45 1    
    86   44  110 1    
    87   45   46 1    
    88   45   47 1    
    89   45  111 1    
    90   46  112 1    
    91   46  113 1    
    92   46  114 1    
    93   47   48 2    
    94   47   49 am   BACKBONE|DICT|INTERRES
    95   49   50 1    
    96   49  115 1    
    97   50   51 1    
    98   50   52 1    
    99   50  116 1    
   100   51  117 1    
   101   51  118 1    
   102   51  119 1    
   103   52   53 2    
   104   52   54 am   BACKBONE|DICT|INTERRES
   105   54   55 1    
   106   54  120 1    
   107   55   56 1    
   108   55   57 1    
   109   55  121 1    
   110   56  122 1    
   111   56  123 1    
   112   56  124 1    
   113   57   58 2    
   114   57   59 am   BACKBONE|DICT|INTERRES
   115   59   60 1    
   116   59  125 1    
   117   60   61 1    
   118   60   62 1    
   119   60  126 1    
   120   61  127 1    
   121   61  128 1    
   122   61  129 1    
   123   62   63 2    
   124   62   64 am   BACKBONE|DICT|INTERRES
   125   64   65 1    
   126   64  130 1    
   127   65   66 1    
   128   65   69 1    
   129   65  131 1    
   130   66   67 am   BACKBONE|DICT|INTERRES
   131   66   68 2    
   132   67  132 1    
   133   67  133 1    
   134   69   70 1    
   135   69  134 1    
   136   69  135 1    
   137   70   71 1    
   138   71  136 1    
   139   71  137 1    
@<TRIPOS>SUBSTRUCTURE
     1 UNK         1 GROUP             0       ****    0 ROOT    
