@<TRIPOS>MOLECULE
3R137
137   139    1
SMALL
USER_CHARGES


@<TRIPOS>ATOM
      1 CA         29.0789   -5.0887   -3.5455 C.3       0 UNK        -0.2020 
      2 C          28.2769   -4.9229   -2.2663 C.2       0 UNK         0.4855 
      3 O          27.4070   -5.7427   -1.9728 O.2       0 UNK        -0.5197 
      4 N          28.5469   -3.8476   -1.5147 N.am      1 UNK        -0.4892 
      5 CA         27.8489   -3.4947   -0.2654 C.3       1 UNK         0.0835 
      6 C6         28.7745   -2.7568    0.7370 C.3       12 UNK        -0.0855 
      7 S7         30.2995   -3.7087    1.0864 S.3       12 UNK        -0.2931 
      8 C8         31.6388   -2.5571    0.6292 C.3       12 UNK         0.0378 
      9 C9         31.5240   -2.0488   -0.8019 C.ar      12 UNK        -0.0802 
     10 C10        31.8370   -2.8779   -1.8854 C.ar      12 UNK        -0.0944 
     11 C11        31.7134   -2.4044   -3.1968 C.ar      12 UNK        -0.0787 
     12 C12        31.2716   -1.0964   -3.4172 C.ar      12 UNK        -0.0862 
     13 C13        30.9766   -0.2557   -2.3418 C.ar      12 UNK        -0.0733 
     14 C14        31.1106   -0.7346   -1.0378 C.ar      12 UNK        -0.0832 
     15 C15        30.5106    1.1704   -2.5855 C.3       12 UNK         0.0240 
     16 S16        28.7393    1.3833   -2.2207 S.3       12 UNK        -0.2522 
     17 C17        27.9561    0.2132   -3.3817 C.3       12 UNK        -0.0967 
     18 CA         27.9430    0.6983   -4.8530 C.3       5 UNK         0.0660 
     19 N          27.5961   -0.3921   -5.7661 N.am      5 UNK        -0.4015 
     20 C          27.7274   -0.3461   -7.0998 C.2       4 UNK         0.4946 
     21 O          28.2564    0.5859   -7.7056 O.2       4 UNK        -0.5353 
     22 CA         27.1461   -1.5230   -7.9046 C.3       4 UNK         0.0277 
     23 CB         28.2314   -2.5857   -8.1433 C.3       4 UNK        -0.1981 
     24 N          25.9815   -2.1534   -7.2748 N.am      4 UNK        -0.4209 
     25 C          24.8464   -1.5320   -6.9209 C.2       3 UNK         0.4942 
     26 O          24.6120   -0.3476   -7.1576 O.2       3 UNK        -0.5208 
     27 CA         23.8306   -2.3442   -6.0971 C.3       3 UNK         0.0250 
     28 CB         23.8799   -3.8604   -6.3919 C.3       3 UNK        -0.1990 
     29 N          23.9513   -2.1040   -4.6495 N.am      3 UNK        -0.4232 
     30 C          25.0526   -2.2430   -3.8944 C.2       2 UNK         0.4993 
     31 O          26.1742   -2.4818   -4.3582 O.2       2 UNK        -0.5286 
     32 CA         24.8940   -2.1066   -2.3681 C.3       2 UNK         0.0209 
     33 CB         23.6448   -2.8481   -1.8420 C.3       2 UNK        -0.1931 
     34 N          26.1114   -2.6704   -1.7939 N.am      2 UNK        -0.4546 
     35 C          26.5287   -2.7248   -0.5254 C.2       1 UNK         0.5154 
     36 O          25.9198   -2.2108    0.4140 O.2       1 UNK        -0.5181 
     37 C          27.0185    1.9181   -5.0508 C.2       5 UNK         0.5014 
     38 O          27.5110    3.0405   -5.1673 O.2       5 UNK        -0.5248 
     39 N          25.7009    1.6737   -5.1159 N.am      6 UNK        -0.4434 
     40 CA         24.6739    2.7010   -5.3116 C.3       6 UNK         0.0363 
     41 CB         23.2906    2.1137   -4.9872 C.3       6 UNK        -0.1936 
     42 C          24.6992    3.2934   -6.7299 C.2       6 UNK         0.5081 
     43 O          24.4967    4.4968   -6.8907 O.2       6 UNK        -0.5248 
     44 N          24.9788    2.4432   -7.7266 N.am      7 UNK        -0.4718 
     45 CA         25.1650    2.8241   -9.1288 C.3       7 UNK         0.0273 
     46 CB         25.0810    1.5583   -9.9974 C.3       7 UNK        -0.1935 
     47 C          26.4889    3.5648   -9.4004 C.2       7 UNK         0.5018 
     48 O          26.6181    4.1691  -10.4658 O.2       7 UNK        -0.5186 
     49 N          27.4429    3.4848   -8.4582 N.am      8 UNK        -0.4240 
     50 CA         28.8220    3.9835   -8.5326 C.3       8 UNK         0.0235 
     51 CB         28.8541    5.5259   -8.5791 C.3       8 UNK        -0.2000 
     52 C          29.6116    3.3212   -9.6792 C.2       8 UNK         0.4941 
     53 O          30.3205    3.9993  -10.4248 O.2       8 UNK        -0.5273 
     54 N          29.4621    1.9958   -9.7977 N.am      9 UNK        -0.4262 
     55 CA         30.0192    1.1667  -10.8689 C.3       9 UNK         0.0264 
     56 CB         28.9925    0.0760  -11.2238 C.3       9 UNK        -0.1955 
     57 C          31.3885    0.5555  -10.5154 C.2       9 UNK         0.5031 
     58 O          31.8483   -0.3303  -11.2381 O.2       9 UNK        -0.5390 
     59 N          32.0070    1.0055   -9.4109 N.am      10 UNK        -0.4204 
     60 CA         33.3270    0.5999   -8.9006 C.3       10 UNK         0.0237 
     61 CB         34.4448    1.1569   -9.8082 C.3       10 UNK        -0.1985 
     62 C          33.4503   -0.9203   -8.6655 C.2       10 UNK         0.4970 
     63 O          34.4787   -1.5164   -8.9910 O.2       10 UNK        -0.4914 
     64 N          32.3760   -1.5103   -8.1254 N.am      11 UNK        -0.4285 
     65 CA         32.1913   -2.9533   -7.8912 C.3       11 UNK         0.1007 
     66 C          32.0116   -3.8051   -9.1856 C.2       11 UNK         0.5703 
     67 N          31.8520   -3.2151  -10.3655 N.am      11 UNK        -0.7361 
     68 O          31.9759   -5.0313   -9.1163 O.2       11 UNK        -0.4986 
     69 C69        33.2305   -3.5769   -6.9087 C.3       12 UNK        -0.0947 
     70 S70        33.4249   -2.6387   -5.3563 S.3       12 UNK        -0.2240 
     71 C71        32.0367   -3.2981   -4.3850 C.3       12 UNK         0.0194 
     72 H72        28.6343   -5.8526   -4.1831 H         1 UNK         0.0906 
     73 H73        29.0981   -4.1553   -4.1072 H         1 UNK         0.0906 
     74 H74        30.1007   -5.3887   -3.3164 H         1 UNK         0.0906 
     75 H75        29.2959   -3.2225   -1.7820 H         1 UNK         0.3140 
     76 H76        27.5439   -4.4241    0.2212 H         1 UNK         0.1085 
     77 H77        28.2588   -2.6079    1.6876 H         1 UNK         0.0836 
     78 H78        29.0161   -1.7582    0.3740 H         1 UNK         0.0836 
     79 H79        32.5965   -3.0642    0.7545 H         1 UNK         0.0731 
     80 H80        31.6436   -1.7250    1.3352 H         1 UNK         0.0731 
     81 H81        32.1677   -3.8917   -1.7038 H         1 UNK         0.1312 
     82 H82        31.1687   -0.7318   -4.4303 H         1 UNK         0.1406 
     83 H83        30.8754   -0.0830   -0.2067 H         1 UNK         0.1631 
     84 H84        31.0827    1.8487   -1.9508 H         1 UNK         0.0717 
     85 H85        30.7128    1.4777   -3.6122 H         1 UNK         0.0717 
     86 H86        28.4625   -0.7493   -3.3029 H         1 UNK         0.0934 
     87 H87        26.9413    0.0287   -3.0286 H         1 UNK         0.0934 
     88 H88        28.9539    1.0129   -5.1183 H         1 UNK         0.0739 
     89 H89        27.1534   -1.2100   -5.3524 H         1 UNK         0.3093 
     90 H90        26.8248   -1.1327   -8.8714 H         1 UNK         0.0818 
     91 H91        29.1159   -2.1490   -8.6079 H         1 UNK         0.0819 
     92 H92        27.8761   -3.3727   -8.8087 H         1 UNK         0.0819 
     93 H93        28.5509   -3.0532   -7.2109 H         1 UNK         0.0819 
     94 H94        26.0921   -3.1143   -6.9845 H         1 UNK         0.3041 
     95 H95        22.8442   -1.9840   -6.3940 H         1 UNK         0.0784 
     96 H96        23.8092   -4.0573   -7.4627 H         1 UNK         0.0793 
     97 H97        24.7949   -4.3283   -6.0269 H         1 UNK         0.0793 
     98 H98        23.0429   -4.3741   -5.9186 H         1 UNK         0.0793 
     99 H99        23.0863   -1.8692   -4.1826 H         1 UNK         0.3024 
    100 H100       24.8367   -1.0470   -2.1121 H         1 UNK         0.1171 
    101 H101       23.5790   -2.8064   -0.7551 H         1 UNK         0.0786 
    102 H102       22.7243   -2.4050   -2.2229 H         1 UNK         0.0786 
    103 H103       23.6506   -3.8997   -2.1324 H         1 UNK         0.0786 
    104 H104       26.7091   -3.0840   -2.5010 H         1 UNK         0.2977 
    105 H105       25.3810    0.7165   -5.1090 H         1 UNK         0.3127 
    106 H106       24.8712    3.5144   -4.6098 H         1 UNK         0.0770 
    107 H107       23.2439    1.7499   -3.9607 H         1 UNK         0.0814 
    108 H108       23.0340    1.2863   -5.6498 H         1 UNK         0.0814 
    109 H109       22.5127    2.8704   -5.0972 H         1 UNK         0.0814 
    110 H110       25.0416    1.4508   -7.5086 H         1 UNK         0.2983 
    111 H111       24.3508    3.4941   -9.4132 H         1 UNK         0.0947 
    112 H112       25.1486    1.8055  -11.0578 H         1 UNK         0.0806 
    113 H113       24.1380    1.0325   -9.8459 H         1 UNK         0.0806 
    114 H114       25.8915    0.8652   -9.7727 H         1 UNK         0.0806 
    115 H115       27.2257    2.9456   -7.6303 H         1 UNK         0.3000 
    116 H116       29.3069    3.6713   -7.6062 H         1 UNK         0.0850 
    117 H117       29.8775    5.8965   -8.5105 H         1 UNK         0.0810 
    118 H118       28.2967    5.9578   -7.7479 H         1 UNK         0.0810 
    119 H119       28.4304    5.9143   -9.5056 H         1 UNK         0.0810 
    120 H120       28.9103    1.5085   -9.0900 H         1 UNK         0.3040 
    121 H121       30.1705    1.7824  -11.7580 H         1 UNK         0.0766 
    122 H122       28.0318    0.5115  -11.4992 H         1 UNK         0.0812 
    123 H123       28.8248   -0.6045  -10.3904 H         1 UNK         0.0812 
    124 H124       29.3283   -0.5227  -12.0716 H         1 UNK         0.0812 
    125 H125       31.5300    1.7212   -8.8814 H         1 UNK         0.3205 
    126 H126       33.4367    1.0656   -7.9200 H         1 UNK         0.0754 
    127 H127       35.4301    0.9635   -9.3822 H         1 UNK         0.0769 
    128 H128       34.3538    2.2359   -9.9326 H         1 UNK         0.0769 
    129 H129       34.4232    0.7026  -10.7996 H         1 UNK         0.0769 
    130 H130       31.5796   -0.9304   -7.9095 H         1 UNK         0.2981 
    131 H131       31.2209   -3.0230   -7.4006 H         1 UNK         0.0541 
    132 H132       31.8975   -2.2075  -10.4692 H         1 UNK         0.3459 
    133 H133       31.7243   -3.7909  -11.1819 H         1 UNK         0.3459 
    134 H134       32.9532   -4.6016   -6.6550 H         1 UNK         0.0612 
    135 H135       34.2103   -3.6428   -7.3838 H         1 UNK         0.0612 
    136 H136       32.2780   -4.3121   -4.0631 H         1 UNK         0.0624 
    137 H137       31.1539   -3.3692   -5.0203 H         1 UNK         0.0624 
@<TRIPOS>BOND
     1    1    2 1    
     2    1   72 1    
     3    1   73 1    
     4    1   74 1    
     5    2    3 2    
     6    2    4 am   BACKBONE|DICT|INTERRES
     7    4    5 1    
     8    4   75 1    
     9    5    6 1    
    10    5   35 1    
    11    5   76 1    
    12    6    7 1    
    13    6   77 1    
    14    6   78 1    
    15    7    8 1    
    16    8    9 1    
    17    8   79 1    
    18    8   80 1    
    19    9   10 ar   
    20    9   14 ar   
    21   10   11 ar   
    22   10   81 1    
    23   11   12 ar   
    24   11   71 1    
    25   12   13 ar   
    26   12   82 1    
    27   13   14 ar   
    28   13   15 1    
    29   14   83 1    
    30   15   16 1    
    31   15   84 1    
    32   15   85 1    
    33   16   17 1    
    34   17   18 1    
    35   17   86 1    
    36   17   87 1    
    37   18   19 1    
    38   18   37 1    
    39   18   88 1    
    40   19   20 am   BACKBONE|DICT|INTERRES
    41   19   89 1    
    42   20   21 2    
    43   20   22 1    
    44   22   23 1    
    45   22   24 1    
    46   22   90 1    
    47   23   91 1    
    48   23   92 1    
    49   23   93 1    
    50   24   25 am   BACKBONE|DICT|INTERRES
    51   24   94 1    
    52   25   26 2    
    53   25   27 1    
    54   27   28 1    
    55   27   29 1    
    56   27   95 1    
    57   28   96 1    
    58   28   97 1    
    59   28   98 1    
    60   29   30 am   BACKBONE|DICT|INTERRES
    61   29   99 1    
    62   30   31 2    
    63   30   32 1    
    64   32   33 1    
    65   32   34 1    
    66   32  100 1    
    67   33  101 1    
    68   33  102 1    
    69   33  103 1    
    70   34   35 am   BACKBONE|DICT|INTERRES
    71   34  104 1    
    72   35   36 2    
    73   37   38 2    
    74   37   39 am   BACKBONE|DICT|INTERRES
    75   39   40 1    
    76   39  105 1    
    77   40   41 1    
    78   40   42 1    
    79   40  106 1    
    80   41  107 1    
    81   41  108 1    
    82   41  109 1    
    83   42   43 2    
    84   42   44 am   BACKBONE|DICT|INTERRES
    85   44   45 1    
    86   44  110 1    
    87   45   46 1    
    88   45   47 1    
    89   45  111 1    
    90   46  112 1    
    91   46  113 1    
    92   46  114 1    
    93   47   48 2    
    94   47   49 am   BACKBONE|DICT|INTERRES
    95   49   50 1    
    96   49  115 1    
    97   50   51 1    
    98   50   52 1    
    99   50  116 1    
   100   51  117 1    
   101   51  118 1    
   102   51  119 1    
   103   52   53 2    
   104   52   54 am   BACKBONE|DICT|INTERRES
   105   54   55 1    
   106   54  120 1    
   107   55   56 1    
   108   55   57 1    
   109   55  121 1    
   110   56  122 1    
   111   56  123 1    
   112   56  124 1    
   113   57   58 2    
   114   57   59 am   BACKBONE|DICT|INTERRES
   115   59   60 1    
   116   59  125 1    
   117   60   61 1    
   118   60   62 1    
   119   60  126 1    
   120   61  127 1    
   121   61  128 1    
   122   61  129 1    
   123   62   63 2    
   124   62   64 am   BACKBONE|DICT|INTERRES
   125   64   65 1    
   126   64  130 1    
   127   65   66 1    
   128   65   69 1    
   129   65  131 1    
   130   66   67 am   BACKBONE|DICT|INTERRES
   131   66   68 2    
   132   67  132 1    
   133   67  133 1    
   134   69   70 1    
   135   69  134 1    
   136   69  135 1    
   137   70   71 1    
   138   71  136 1    
   139   71  137 1    
@<TRIPOS>SUBSTRUCTURE
     1 UNK         1 GROUP             0       ****    0 ROOT    
