@<TRIPOS>MOLECULE
3R137
137   139    1
SMALL
USER_CHARGES


@<TRIPOS>ATOM
      1 CA         26.5572   -5.6932   -3.7501 C.3       0 UNK        -0.2020 
      2 C          28.0450   -5.3830   -3.6027 C.2       0 UNK         0.4855 
      3 O          28.8339   -5.8341   -4.4293 O.2       0 UNK        -0.5197 
      4 N          28.4780   -4.6389   -2.5752 N.am      1 UNK        -0.4892 
      5 CA         27.6692   -3.9964   -1.5296 C.3       1 UNK         0.0835 
      6 C6         28.4993   -3.5862   -0.2734 C.3       12 UNK        -0.0855 
      7 S7         29.8774   -4.7127    0.1604 S.3       12 UNK        -0.2931 
      8 C8         31.3459   -3.6595   -0.1253 C.3       12 UNK         0.0378 
      9 C9         31.3582   -3.0640   -1.5269 C.ar      12 UNK        -0.0802 
     10 C10        31.6646   -3.8656   -2.6290 C.ar      12 UNK        -0.0944 
     11 C11        31.5770   -3.3498   -3.9243 C.ar      12 UNK        -0.0787 
     12 C12        31.1826   -2.0199   -4.1119 C.ar      12 UNK        -0.0862 
     13 C13        30.8970   -1.1982   -3.0165 C.ar      12 UNK        -0.0733 
     14 C14        31.0135   -1.7227   -1.7256 C.ar      12 UNK        -0.0832 
     15 C15        30.4365    0.2421   -3.2271 C.3       12 UNK         0.0240 
     16 S16        28.8222    0.5491   -2.4344 S.3       12 UNK        -0.2522 
     17 C17        28.0789    1.9119   -3.4024 C.3       12 UNK        -0.0967 
     18 CA         27.9368    1.6651   -4.9315 C.3       5 UNK         0.0660 
     19 N          27.6103    0.2822   -5.2757 N.am      5 UNK        -0.4015 
     20 C          27.7438   -0.2451   -6.4992 C.2       4 UNK         0.4946 
     21 O          28.2534    0.3497   -7.4530 O.2       4 UNK        -0.5353 
     22 CA         27.2084   -1.6706   -6.6943 C.3       4 UNK         0.0277 
     23 CB         28.3203   -2.7027   -6.4479 C.3       4 UNK        -0.1981 
     24 N          26.0628   -1.9556   -5.8236 N.am      4 UNK        -0.4209 
     25 C          24.8302   -1.4649   -6.0240 C.2       3 UNK         0.4942 
     26 O          24.5357   -0.7351   -6.9683 O.2       3 UNK        -0.5208 
     27 CA         23.7465   -1.8093   -4.9865 C.3       3 UNK         0.0250 
     28 CB         23.1131   -3.1735   -5.3022 C.3       3 UNK        -0.1990 
     29 N          24.2293   -1.8008   -3.6043 N.am      3 UNK        -0.4232 
     30 C          24.7414   -0.7309   -2.9803 C.2       2 UNK         0.4993 
     31 O          24.8395    0.3826   -3.4945 O.2       2 UNK        -0.5286 
     32 CA         25.2920   -0.9494   -1.5614 C.3       2 UNK         0.0209 
     33 CB         24.1777   -0.7577   -0.5203 C.3       2 UNK        -0.1931 
     34 N          25.9624   -2.2388   -1.3312 N.am      2 UNK        -0.4546 
     35 C          26.9327   -2.7630   -2.0958 C.2       1 UNK         0.5154 
     36 O          27.2598   -2.3013   -3.1923 O.2       1 UNK        -0.5181 
     37 C          26.9057    2.6224   -5.5647 C.2       5 UNK         0.5014 
     38 O          27.2955    3.5716   -6.2449 O.2       5 UNK        -0.5248 
     39 N          25.6102    2.3291   -5.3653 N.am      6 UNK        -0.4434 
     40 CA         24.4711    3.0921   -5.8870 C.3       6 UNK         0.0363 
     41 CB         23.1665    2.5378   -5.2933 C.3       6 UNK        -0.1936 
     42 C          24.3911    3.1167   -7.4221 C.2       6 UNK         0.5081 
     43 O          24.0485    4.1538   -7.9900 O.2       6 UNK        -0.5248 
     44 N          24.7369    1.9954   -8.0706 N.am      7 UNK        -0.4718 
     45 CA         24.8364    1.8744   -9.5299 C.3       7 UNK         0.0273 
     46 CB         24.8630    0.3844   -9.9106 C.3       7 UNK        -0.1935 
     47 C          26.0564    2.5956  -10.1347 C.2       7 UNK         0.5018 
     48 O          26.1468    2.6761  -11.3603 O.2       7 UNK        -0.5186 
     49 N          26.9769    3.0749   -9.2830 N.am      8 UNK        -0.4240 
     50 CA         28.2530    3.7165   -9.6157 C.3       8 UNK         0.0235 
     51 CB         28.0357    5.0418  -10.3774 C.3       8 UNK        -0.2000 
     52 C          29.2458    2.7709  -10.3191 C.2       8 UNK         0.4941 
     53 O          30.1284    3.2411  -11.0393 O.2       8 UNK        -0.5273 
     54 N          29.1119    1.4587  -10.0731 N.am      9 UNK        -0.4262 
     55 CA         30.0921    0.4452  -10.4659 C.3       9 UNK         0.0264 
     56 CB         29.4371   -0.9460  -10.4617 C.3       9 UNK        -0.1955 
     57 C          31.3082    0.4856   -9.5288 C.2       9 UNK         0.5031 
     58 O          32.4377    0.3157   -9.9906 O.2       9 UNK        -0.5390 
     59 N          31.0456    0.7289   -8.2329 N.am      10 UNK        -0.4204 
     60 CA         32.0102    1.0225   -7.1637 C.3       10 UNK         0.0237 
     61 CB         32.6060    2.4309   -7.3686 C.3       10 UNK        -0.1985 
     62 C          33.0984   -0.0525   -6.9643 C.2       10 UNK         0.4970 
     63 O          34.1893    0.2650   -6.4878 O.2       10 UNK        -0.4914 
     64 N          32.7793   -1.3006   -7.3330 N.am      11 UNK        -0.4285 
     65 CA         33.6869   -2.4573   -7.3395 C.3       11 UNK         0.1007 
     66 C          34.8247   -2.3834   -8.4054 C.2       11 UNK         0.5703 
     67 N          34.7385   -1.5143   -9.4074 N.am      11 UNK        -0.7361 
     68 O          35.7838   -3.1498   -8.3509 O.2       11 UNK        -0.4986 
     69 C69        34.1747   -2.8368   -5.9034 C.3       12 UNK        -0.0947 
     70 S70        33.6435   -4.5044   -5.4006 S.3       12 UNK        -0.2240 
     71 C71        31.8609   -4.2496   -5.1188 C.3       12 UNK         0.0194 
     72 H72        26.1562   -6.1531   -2.8478 H         1 UNK         0.0906 
     73 H73        25.9907   -4.7908   -3.9737 H         1 UNK         0.0906 
     74 H74        26.3963   -6.3922   -4.5707 H         1 UNK         0.0906 
     75 H75        29.4626   -4.4149   -2.5260 H         1 UNK         0.3140 
     76 H76        26.9168   -4.7155   -1.2018 H         1 UNK         0.1085 
     77 H77        27.8381   -3.5415    0.5937 H         1 UNK         0.0836 
     78 H78        28.8900   -2.5730   -0.3669 H         1 UNK         0.0836 
     79 H79        32.2470   -4.2557    0.0258 H         1 UNK         0.0731 
     80 H80        31.3716   -2.8710    0.6286 H         1 UNK         0.0731 
     81 H81        31.9386   -4.9017   -2.4811 H         1 UNK         0.1312 
     82 H82        31.0872   -1.6290   -5.1141 H         1 UNK         0.1406 
     83 H83        30.7798   -1.0949   -0.8764 H         1 UNK         0.1631 
     84 H84        30.3647    0.4549   -4.2913 H         1 UNK         0.0717 
     85 H85        31.1783    0.9292   -2.8185 H         1 UNK         0.0717 
     86 H86        27.1017    2.0953   -2.9506 H         1 UNK         0.0934 
     87 H87        28.6584    2.8196   -3.2251 H         1 UNK         0.0934 
     88 H88        28.9012    1.8932   -5.3901 H         1 UNK         0.0739 
     89 H89        27.2353   -0.2934   -4.5321 H         1 UNK         0.3093 
     90 H90        26.8845   -1.7603   -7.7334 H         1 UNK         0.0818 
     91 H91        29.1785   -2.5174   -7.0946 H         1 UNK         0.0819 
     92 H92        28.6758   -2.6780   -5.4174 H         1 UNK         0.0819 
     93 H93        27.9735   -3.7156   -6.6529 H         1 UNK         0.0819 
     94 H94        26.2650   -2.4434   -4.9576 H         1 UNK         0.3041 
     95 H95        22.9680   -1.0474   -5.0645 H         1 UNK         0.0784 
     96 H96        22.7218   -3.1942   -6.3206 H         1 UNK         0.0793 
     97 H97        23.8344   -3.9868   -5.2145 H         1 UNK         0.0793 
     98 H98        22.2795   -3.3889   -4.6335 H         1 UNK         0.0793 
     99 H99        24.1937   -2.6736   -3.0988 H         1 UNK         0.3024 
    100 H100       26.0417   -0.1722   -1.3987 H         1 UNK         0.1171 
    101 H101       24.5756   -0.7661    0.4946 H         1 UNK         0.0786 
    102 H102       23.6739    0.2003   -0.6588 H         1 UNK         0.0786 
    103 H103       23.4191   -1.5382   -0.5914 H         1 UNK         0.0786 
    104 H104       25.7450   -2.6933   -0.4557 H         1 UNK         0.2977 
    105 H105       25.3764    1.5400   -4.7619 H         1 UNK         0.3127 
    106 H106       24.5878    4.1238   -5.5489 H         1 UNK         0.0770 
    107 H107       23.0120    1.4938   -5.5689 H         1 UNK         0.0814 
    108 H108       22.3032    3.1020   -5.6484 H         1 UNK         0.0814 
    109 H109       23.1686    2.5989   -4.2049 H         1 UNK         0.0814 
    110 H110       24.9215    1.1528   -7.5332 H         1 UNK         0.2983 
    111 H111       23.9458    2.3251   -9.9730 H         1 UNK         0.0947 
    112 H112       24.9143    0.2533  -10.9924 H         1 UNK         0.0806 
    113 H113       23.9635   -0.1277   -9.5686 H         1 UNK         0.0806 
    114 H114       25.7250   -0.1256   -9.4784 H         1 UNK         0.0806 
    115 H115       26.8008    2.9683   -8.2905 H         1 UNK         0.3000 
    116 H116       28.7144    3.9651   -8.6587 H         1 UNK         0.0850 
    117 H117       28.9707    5.5950  -10.4734 H         1 UNK         0.0810 
    118 H118       27.3310    5.6884   -9.8543 H         1 UNK         0.0810 
    119 H119       27.6549    4.8743  -11.3851 H         1 UNK         0.0810 
    120 H120       28.3927    1.1641   -9.4224 H         1 UNK         0.3040 
    121 H121       30.4367    0.6591  -11.4800 H         1 UNK         0.0766 
    122 H122       28.5898   -0.9848  -11.1466 H         1 UNK         0.0812 
    123 H123       29.0785   -1.2291   -9.4719 H         1 UNK         0.0812 
    124 H124       30.1470   -1.7098  -10.7818 H         1 UNK         0.0812 
    125 H125       30.0648    0.7663   -7.9618 H         1 UNK         0.3205 
    126 H126       31.4367    1.0428   -6.2381 H         1 UNK         0.0754 
    127 H127       33.2367    2.4745   -8.2574 H         1 UNK         0.0769 
    128 H128       33.2192    2.7294   -6.5173 H         1 UNK         0.0769 
    129 H129       31.8220    3.1806   -7.4780 H         1 UNK         0.0769 
    130 H130       31.8757   -1.4527   -7.7539 H         1 UNK         0.2981 
    131 H131       33.0632   -3.2680   -7.7163 H         1 UNK         0.0541 
    132 H132       33.9452   -0.8864   -9.4935 H         1 UNK         0.3459 
    133 H133       35.4733   -1.4866  -10.0958 H         1 UNK         0.3459 
    134 H134       35.2616   -2.7930   -5.8179 H         1 UNK         0.0612 
    135 H135       33.8165   -2.1328   -5.1523 H         1 UNK         0.0612 
    136 H136       31.3996   -5.2235   -4.9522 H         1 UNK         0.0624 
    137 H137       31.3973   -3.8496   -6.0213 H         1 UNK         0.0624 
@<TRIPOS>BOND
     1    1    2 1    
     2    1   72 1    
     3    1   73 1    
     4    1   74 1    
     5    2    3 2    
     6    2    4 am   BACKBONE|DICT|INTERRES
     7    4    5 1    
     8    4   75 1    
     9    5    6 1    
    10    5   35 1    
    11    5   76 1    
    12    6    7 1    
    13    6   77 1    
    14    6   78 1    
    15    7    8 1    
    16    8    9 1    
    17    8   79 1    
    18    8   80 1    
    19    9   10 ar   
    20    9   14 ar   
    21   10   11 ar   
    22   10   81 1    
    23   11   12 ar   
    24   11   71 1    
    25   12   13 ar   
    26   12   82 1    
    27   13   14 ar   
    28   13   15 1    
    29   14   83 1    
    30   15   16 1    
    31   15   84 1    
    32   15   85 1    
    33   16   17 1    
    34   17   18 1    
    35   17   86 1    
    36   17   87 1    
    37   18   19 1    
    38   18   37 1    
    39   18   88 1    
    40   19   20 am   BACKBONE|DICT|INTERRES
    41   19   89 1    
    42   20   21 2    
    43   20   22 1    
    44   22   23 1    
    45   22   24 1    
    46   22   90 1    
    47   23   91 1    
    48   23   92 1    
    49   23   93 1    
    50   24   25 am   BACKBONE|DICT|INTERRES
    51   24   94 1    
    52   25   26 2    
    53   25   27 1    
    54   27   28 1    
    55   27   29 1    
    56   27   95 1    
    57   28   96 1    
    58   28   97 1    
    59   28   98 1    
    60   29   30 am   BACKBONE|DICT|INTERRES
    61   29   99 1    
    62   30   31 2    
    63   30   32 1    
    64   32   33 1    
    65   32   34 1    
    66   32  100 1    
    67   33  101 1    
    68   33  102 1    
    69   33  103 1    
    70   34   35 am   BACKBONE|DICT|INTERRES
    71   34  104 1    
    72   35   36 2    
    73   37   38 2    
    74   37   39 am   BACKBONE|DICT|INTERRES
    75   39   40 1    
    76   39  105 1    
    77   40   41 1    
    78   40   42 1    
    79   40  106 1    
    80   41  107 1    
    81   41  108 1    
    82   41  109 1    
    83   42   43 2    
    84   42   44 am   BACKBONE|DICT|INTERRES
    85   44   45 1    
    86   44  110 1    
    87   45   46 1    
    88   45   47 1    
    89   45  111 1    
    90   46  112 1    
    91   46  113 1    
    92   46  114 1    
    93   47   48 2    
    94   47   49 am   BACKBONE|DICT|INTERRES
    95   49   50 1    
    96   49  115 1    
    97   50   51 1    
    98   50   52 1    
    99   50  116 1    
   100   51  117 1    
   101   51  118 1    
   102   51  119 1    
   103   52   53 2    
   104   52   54 am   BACKBONE|DICT|INTERRES
   105   54   55 1    
   106   54  120 1    
   107   55   56 1    
   108   55   57 1    
   109   55  121 1    
   110   56  122 1    
   111   56  123 1    
   112   56  124 1    
   113   57   58 2    
   114   57   59 am   BACKBONE|DICT|INTERRES
   115   59   60 1    
   116   59  125 1    
   117   60   61 1    
   118   60   62 1    
   119   60  126 1    
   120   61  127 1    
   121   61  128 1    
   122   61  129 1    
   123   62   63 2    
   124   62   64 am   BACKBONE|DICT|INTERRES
   125   64   65 1    
   126   64  130 1    
   127   65   66 1    
   128   65   69 1    
   129   65  131 1    
   130   66   67 am   BACKBONE|DICT|INTERRES
   131   66   68 2    
   132   67  132 1    
   133   67  133 1    
   134   69   70 1    
   135   69  134 1    
   136   69  135 1    
   137   70   71 1    
   138   71  136 1    
   139   71  137 1    
@<TRIPOS>SUBSTRUCTURE
     1 UNK         1 GROUP             0       ****    0 ROOT    
