@<TRIPOS>MOLECULE
3R137
137   139    1
SMALL
USER_CHARGES


@<TRIPOS>ATOM
      1 CA         24.4274   -1.5908    0.7273 C.3       0 UNK        -0.2020 
      2 C          25.6468   -1.0153    0.0247 C.2       0 UNK         0.4855 
      3 O          25.7514    0.2038   -0.1173 O.2       0 UNK        -0.5197 
      4 N          26.5700   -1.8775   -0.4251 N.am      1 UNK        -0.4892 
      5 CA         27.7861   -1.4925   -1.1505 C.3       1 UNK         0.0835 
      6 C6         28.7242   -2.6991   -1.3863 C.3       12 UNK        -0.0855 
      7 S7         30.4566   -2.1799   -1.6386 S.3       12 UNK        -0.2931 
      8 C8         31.2755   -3.7718   -1.9773 C.3       12 UNK         0.0378 
      9 C9         31.1063   -4.1967   -3.4291 C.ar      12 UNK        -0.0802 
     10 C10        32.0893   -3.8920   -4.3766 C.ar      12 UNK        -0.0944 
     11 C11        31.9414   -4.2956   -5.7080 C.ar      12 UNK        -0.0787 
     12 C12        30.7818   -4.9760   -6.0955 C.ar      12 UNK        -0.0862 
     13 C13        29.7861   -5.2719   -5.1609 C.ar      12 UNK        -0.0733 
     14 C14        29.9718   -4.9091   -3.8244 C.ar      12 UNK        -0.0832 
     15 C15        28.5162   -5.9954   -5.5871 C.3       12 UNK         0.0240 
     16 S16        27.0139   -5.0737   -5.1221 S.3       12 UNK        -0.2522 
     17 C17        27.1115   -3.6055   -6.2042 C.3       12 UNK        -0.0967 
     18 CA         25.6947   -3.0552   -6.4944 C.3       5 UNK         0.0660 
     19 N          25.0504   -2.5474   -5.2828 N.am      5 UNK        -0.4015 
     20 C          23.7270   -2.5324   -5.0833 C.2       4 UNK         0.4946 
     21 O          22.9014   -2.8865   -5.9267 O.2       4 UNK        -0.5353 
     22 CA         23.2378   -2.0744   -3.7043 C.3       4 UNK         0.0277 
     23 CB         23.6181   -3.1028   -2.6244 C.3       4 UNK        -0.1981 
     24 N          23.7852   -0.7648   -3.3508 N.am      4 UNK        -0.4209 
     25 C          23.0919    0.3831   -3.3798 C.2       3 UNK         0.4942 
     26 O          21.9129    0.4592   -3.7283 O.2       3 UNK        -0.5208 
     27 CA         23.8063    1.6696   -2.9239 C.3       3 UNK         0.0250 
     28 CB         23.2887    2.1128   -1.5451 C.3       3 UNK        -0.1990 
     29 N          25.2627    1.5243   -2.8699 N.am      3 UNK        -0.4232 
     30 C          26.0640    1.6549   -3.9379 C.2       2 UNK         0.4993 
     31 O          25.6634    2.0076   -5.0465 O.2       2 UNK        -0.5286 
     32 CA         27.5617    1.3396   -3.7564 C.3       2 UNK         0.0209 
     33 CB         28.3656    2.6424   -3.6119 C.3       2 UNK        -0.1931 
     34 N          27.8692    0.4647   -2.6225 N.am      2 UNK        -0.4546 
     35 C          27.4224   -0.7885   -2.4726 C.2       1 UNK         0.5154 
     36 O          26.6967   -1.3635   -3.2893 O.2       1 UNK        -0.5181 
     37 C          25.7068   -1.9576   -7.5712 C.2       5 UNK         0.5014 
     38 O          26.1569   -0.8415   -7.3034 O.2       5 UNK        -0.5248 
     39 N          25.2285   -2.3052   -8.7755 N.am      6 UNK        -0.4434 
     40 CA         25.0129   -1.4028   -9.9158 C.3       6 UNK         0.0363 
     41 CB         24.3031   -2.1768  -11.0390 C.3       6 UNK        -0.1936 
     42 C          26.2759   -0.7100  -10.4606 C.2       6 UNK         0.5081 
     43 O          26.1553    0.3192  -11.1255 O.2       6 UNK        -0.5248 
     44 N          27.4585   -1.2637  -10.1608 N.am      7 UNK        -0.4718 
     45 CA         28.7636   -0.6596  -10.4460 C.3       7 UNK         0.0273 
     46 CB         29.8542   -1.7212  -10.2445 C.3       7 UNK        -0.1935 
     47 C          29.0593    0.6031   -9.6091 C.2       7 UNK         0.5018 
     48 O          29.9366    1.3781   -9.9934 O.2       7 UNK        -0.5186 
     49 N          28.3155    0.7993   -8.5082 N.am      8 UNK        -0.4240 
     50 CA         28.3375    1.9603   -7.6158 C.3       8 UNK         0.0235 
     51 CB         27.7887    3.2071   -8.3474 C.3       8 UNK        -0.2000 
     52 C          29.7097    2.1833   -6.9488 C.2       8 UNK         0.4941 
     53 O          30.4582    1.2273   -6.7375 O.2       8 UNK        -0.5273 
     54 N          30.0199    3.4441   -6.6167 N.am      9 UNK        -0.4262 
     55 CA         31.2617    3.8658   -5.9585 C.3       9 UNK         0.0264 
     56 CB         31.1130    5.3265   -5.5021 C.3       9 UNK        -0.1955 
     57 C          32.5279    3.6898   -6.8193 C.2       9 UNK         0.5031 
     58 O          33.6322    3.7474   -6.2772 O.2       9 UNK        -0.5390 
     59 N          32.3570    3.4745   -8.1311 N.am      10 UNK        -0.4204 
     60 CA         33.4325    3.1705   -9.0742 C.3       10 UNK         0.0237 
     61 CB         32.9417    3.4544  -10.5038 C.3       10 UNK        -0.1985 
     62 C          33.9586    1.7270   -8.9568 C.2       10 UNK         0.4970 
     63 O          35.0381    1.4546   -9.4845 O.2       10 UNK        -0.4914 
     64 N          33.2088    0.8292   -8.2982 N.am      11 UNK        -0.4285 
     65 CA         33.6081   -0.5649   -8.0641 C.3       11 UNK         0.1007 
     66 C          34.8441   -0.6855   -7.1299 C.2       11 UNK         0.5703 
     67 N          35.7797   -1.5718   -7.4433 N.am      11 UNK        -0.7361 
     68 O          34.9417   -0.0097   -6.1075 O.2       11 UNK        -0.4986 
     69 C69        32.4171   -1.4156   -7.5476 C.3       12 UNK        -0.0947 
     70 S70        32.4933   -3.1230   -8.1796 S.3       12 UNK        -0.2240 
     71 C71        33.0562   -4.0447   -6.7153 C.3       12 UNK         0.0194 
     72 H72        24.4203   -2.6803    0.7074 H         1 UNK         0.0906 
     73 H73        24.4095   -1.2689    1.7681 H         1 UNK         0.0906 
     74 H74        23.5163   -1.2357    0.2465 H         1 UNK         0.0906 
     75 H75        26.4259   -2.8694   -0.3005 H         1 UNK         0.3140 
     76 H76        28.3061   -0.7795   -0.5063 H         1 UNK         0.1085 
     77 H77        28.7112   -3.3609   -0.5187 H         1 UNK         0.0836 
     78 H78        28.3764   -3.2957   -2.2299 H         1 UNK         0.0836 
     79 H79        30.8876   -4.5404   -1.3068 H         1 UNK         0.0731 
     80 H80        32.3365   -3.6746   -1.7419 H         1 UNK         0.0731 
     81 H81        32.9783   -3.3567   -4.0718 H         1 UNK         0.1312 
     82 H82        30.6614   -5.2800   -7.1264 H         1 UNK         0.1406 
     83 H83        29.2161   -5.1688   -3.0966 H         1 UNK         0.1631 
     84 H84        28.4911   -6.9742   -5.1064 H         1 UNK         0.0717 
     85 H85        28.5068   -6.1791   -6.6626 H         1 UNK         0.0717 
     86 H86        27.7389   -2.8498   -5.7262 H         1 UNK         0.0934 
     87 H87        27.6143   -3.8858   -7.1317 H         1 UNK         0.0934 
     88 H88        25.0967   -3.8878   -6.8730 H         1 UNK         0.0739 
     89 H89        25.6730   -2.1936   -4.5593 H         1 UNK         0.3093 
     90 H90        22.1471   -2.0312   -3.7427 H         1 UNK         0.0818 
     91 H91        23.2630   -4.0989   -2.8922 H         1 UNK         0.0819 
     92 H92        24.6973   -3.1699   -2.4823 H         1 UNK         0.0819 
     93 H93        23.1669   -2.8496   -1.6658 H         1 UNK         0.0819 
     94 H94        24.7731   -0.7359   -3.1246 H         1 UNK         0.3041 
     95 H95        23.5538    2.4537   -3.6411 H         1 UNK         0.0784 
     96 H96        22.2170    2.3138   -1.5786 H         1 UNK         0.0793 
     97 H97        23.4497    1.3482   -0.7850 H         1 UNK         0.0793 
     98 H98        23.7785    3.0276   -1.2111 H         1 UNK         0.0793 
     99 H99        25.6581    1.2306   -1.9822 H         1 UNK         0.3024 
    100 H100       27.8893    0.8202   -4.6593 H         1 UNK         0.1171 
    101 H101       28.1303    3.1603   -2.6813 H         1 UNK         0.0786 
    102 H102       28.1470    3.3326   -4.4276 H         1 UNK         0.0786 
    103 H103       29.4384    2.4502   -3.6288 H         1 UNK         0.0786 
    104 H104       28.4401    0.8645   -1.8913 H         1 UNK         0.2977 
    105 H105       24.8962   -3.2514   -8.8987 H         1 UNK         0.3127 
    106 H106       24.3440   -0.6099   -9.5745 H         1 UNK         0.0770 
    107 H107       24.9099   -3.0071  -11.4026 H         1 UNK         0.0814 
    108 H108       24.0964   -1.5278  -11.8913 H         1 UNK         0.0814 
    109 H109       23.3467   -2.5785  -10.7038 H         1 UNK         0.0814 
    110 H110       27.4583   -2.1183   -9.6241 H         1 UNK         0.2983 
    111 H111       28.7748   -0.3532  -11.4944 H         1 UNK         0.0947 
    112 H112       29.7376   -2.5482  -10.9450 H         1 UNK         0.0806 
    113 H113       29.8288   -2.1323   -9.2351 H         1 UNK         0.0806 
    114 H114       30.8483   -1.3010  -10.4047 H         1 UNK         0.0806 
    115 H115       27.6335    0.0889   -8.2580 H         1 UNK         0.3000 
    116 H116       27.6413    1.7204   -6.8136 H         1 UNK         0.0850 
    117 H117       27.5767    4.0205   -7.6528 H         1 UNK         0.0810 
    118 H118       26.8502    2.9790   -8.8536 H         1 UNK         0.0810 
    119 H119       28.4850    3.5792   -9.1002 H         1 UNK         0.0810 
    120 H120       29.3557    4.1737   -6.8331 H         1 UNK         0.3040 
    121 H121       31.3947    3.2433   -5.0712 H         1 UNK         0.0766 
    122 H122       32.0066    5.6642   -4.9750 H         1 UNK         0.0812 
    123 H123       30.9595    6.0001   -6.3462 H         1 UNK         0.0812 
    124 H124       30.2731    5.4457   -4.8174 H         1 UNK         0.0812 
    125 H125       31.4138    3.4261   -8.4896 H         1 UNK         0.3205 
    126 H126       34.2712    3.8383   -8.8658 H         1 UNK         0.0754 
    127 H127       33.7362    3.2817  -11.2312 H         1 UNK         0.0769 
    128 H128       32.6220    4.4906  -10.6162 H         1 UNK         0.0769 
    129 H129       32.1045    2.8120  -10.7789 H         1 UNK         0.0769 
    130 H130       32.3399    1.1220   -7.8680 H         1 UNK         0.2981 
    131 H131       33.8964   -0.9455   -9.0465 H         1 UNK         0.0541 
    132 H132       35.7005   -2.1391   -8.2728 H         1 UNK         0.3459 
    133 H133       36.5831   -1.6703   -6.8430 H         1 UNK         0.3459 
    134 H134       31.4742   -1.0000   -7.9032 H         1 UNK         0.0612 
    135 H135       32.3432   -1.4061   -6.4581 H         1 UNK         0.0612 
    136 H136       33.8929   -3.5176   -6.2549 H         1 UNK         0.0624 
    137 H137       33.4468   -5.0085   -7.0442 H         1 UNK         0.0624 
@<TRIPOS>BOND
     1    1    2 1    
     2    1   72 1    
     3    1   73 1    
     4    1   74 1    
     5    2    3 2    
     6    2    4 am   BACKBONE|DICT|INTERRES
     7    4    5 1    
     8    4   75 1    
     9    5    6 1    
    10    5   35 1    
    11    5   76 1    
    12    6    7 1    
    13    6   77 1    
    14    6   78 1    
    15    7    8 1    
    16    8    9 1    
    17    8   79 1    
    18    8   80 1    
    19    9   10 ar   
    20    9   14 ar   
    21   10   11 ar   
    22   10   81 1    
    23   11   12 ar   
    24   11   71 1    
    25   12   13 ar   
    26   12   82 1    
    27   13   14 ar   
    28   13   15 1    
    29   14   83 1    
    30   15   16 1    
    31   15   84 1    
    32   15   85 1    
    33   16   17 1    
    34   17   18 1    
    35   17   86 1    
    36   17   87 1    
    37   18   19 1    
    38   18   37 1    
    39   18   88 1    
    40   19   20 am   BACKBONE|DICT|INTERRES
    41   19   89 1    
    42   20   21 2    
    43   20   22 1    
    44   22   23 1    
    45   22   24 1    
    46   22   90 1    
    47   23   91 1    
    48   23   92 1    
    49   23   93 1    
    50   24   25 am   BACKBONE|DICT|INTERRES
    51   24   94 1    
    52   25   26 2    
    53   25   27 1    
    54   27   28 1    
    55   27   29 1    
    56   27   95 1    
    57   28   96 1    
    58   28   97 1    
    59   28   98 1    
    60   29   30 am   BACKBONE|DICT|INTERRES
    61   29   99 1    
    62   30   31 2    
    63   30   32 1    
    64   32   33 1    
    65   32   34 1    
    66   32  100 1    
    67   33  101 1    
    68   33  102 1    
    69   33  103 1    
    70   34   35 am   BACKBONE|DICT|INTERRES
    71   34  104 1    
    72   35   36 2    
    73   37   38 2    
    74   37   39 am   BACKBONE|DICT|INTERRES
    75   39   40 1    
    76   39  105 1    
    77   40   41 1    
    78   40   42 1    
    79   40  106 1    
    80   41  107 1    
    81   41  108 1    
    82   41  109 1    
    83   42   43 2    
    84   42   44 am   BACKBONE|DICT|INTERRES
    85   44   45 1    
    86   44  110 1    
    87   45   46 1    
    88   45   47 1    
    89   45  111 1    
    90   46  112 1    
    91   46  113 1    
    92   46  114 1    
    93   47   48 2    
    94   47   49 am   BACKBONE|DICT|INTERRES
    95   49   50 1    
    96   49  115 1    
    97   50   51 1    
    98   50   52 1    
    99   50  116 1    
   100   51  117 1    
   101   51  118 1    
   102   51  119 1    
   103   52   53 2    
   104   52   54 am   BACKBONE|DICT|INTERRES
   105   54   55 1    
   106   54  120 1    
   107   55   56 1    
   108   55   57 1    
   109   55  121 1    
   110   56  122 1    
   111   56  123 1    
   112   56  124 1    
   113   57   58 2    
   114   57   59 am   BACKBONE|DICT|INTERRES
   115   59   60 1    
   116   59  125 1    
   117   60   61 1    
   118   60   62 1    
   119   60  126 1    
   120   61  127 1    
   121   61  128 1    
   122   61  129 1    
   123   62   63 2    
   124   62   64 am   BACKBONE|DICT|INTERRES
   125   64   65 1    
   126   64  130 1    
   127   65   66 1    
   128   65   69 1    
   129   65  131 1    
   130   66   67 am   BACKBONE|DICT|INTERRES
   131   66   68 2    
   132   67  132 1    
   133   67  133 1    
   134   69   70 1    
   135   69  134 1    
   136   69  135 1    
   137   70   71 1    
   138   71  136 1    
   139   71  137 1    
@<TRIPOS>SUBSTRUCTURE
     1 UNK         1 GROUP             0       ****    0 ROOT    
