@<TRIPOS>MOLECULE
3R137
137   139    1
SMALL
USER_CHARGES


@<TRIPOS>ATOM
      1 CA         22.9456   -5.4745   -2.5234 C.3       0 UNK        -0.2020 
      2 C          24.3188   -4.8282   -2.4245 C.2       0 UNK         0.4855 
      3 O          24.8059   -4.2852   -3.4143 O.2       0 UNK        -0.5197 
      4 N          24.9324   -4.8722   -1.2337 N.am      1 UNK        -0.4892 
      5 CA         26.2657   -4.3464   -0.9056 C.3       1 UNK         0.0835 
      6 C6         27.4135   -5.2222   -1.4796 C.3       12 UNK        -0.0855 
      7 S7         28.8179   -5.2958   -0.3174 S.3       12 UNK        -0.2931 
      8 C8         30.2386   -5.4573   -1.4443 C.3       12 UNK         0.0378 
      9 C9         30.5373   -4.1848   -2.2283 C.ar      12 UNK        -0.0802 
     10 C10        30.6712   -4.2408   -3.6183 C.ar      12 UNK        -0.0944 
     11 C11        31.0153   -3.0968   -4.3407 C.ar      12 UNK        -0.0787 
     12 C12        31.2239   -1.8908   -3.6681 C.ar      12 UNK        -0.0862 
     13 C13        31.0556   -1.8057   -2.2822 C.ar      12 UNK        -0.0733 
     14 C14        30.7264   -2.9639   -1.5689 C.ar      12 UNK        -0.0832 
     15 C15        31.2497   -0.4881   -1.5295 C.3       12 UNK         0.0240 
     16 S16        30.7301    1.0119   -2.4422 S.3       12 UNK        -0.2522 
     17 C17        28.9799    0.6536   -2.8083 C.3       12 UNK        -0.0967 
     18 CA         28.7328    0.4774   -4.3337 C.3       5 UNK         0.0660 
     19 N          27.8753   -0.6716   -4.6194 N.am      5 UNK        -0.4015 
     20 C          27.6882   -1.2018   -5.8359 C.2       4 UNK         0.4946 
     21 O          28.2804   -0.8343   -6.8512 O.2       4 UNK        -0.5353 
     22 CA         26.6296   -2.3107   -5.9428 C.3       4 UNK         0.0277 
     23 CB         27.2468   -3.6754   -5.6000 C.3       4 UNK        -0.1981 
     24 N          25.4645   -2.0631   -5.0873 N.am      4 UNK        -0.4209 
     25 C          24.6406   -1.0114   -5.2148 C.2       3 UNK         0.4942 
     26 O          24.7407   -0.1659   -6.1029 O.2       3 UNK        -0.5208 
     27 CA         23.5536   -0.8396   -4.1431 C.3       3 UNK         0.0250 
     28 CB         22.3749   -1.7941   -4.3927 C.3       3 UNK        -0.1990 
     29 N          24.0702   -1.0196   -2.7843 N.am      3 UNK        -0.4232 
     30 C          24.9743   -0.2182   -2.2011 C.2       2 UNK         0.4993 
     31 O          25.4699    0.7679   -2.7423 O.2       2 UNK        -0.5286 
     32 CA         25.4357   -0.5960   -0.7856 C.3       2 UNK         0.0209 
     33 CB         24.5021    0.0171    0.2699 C.3       2 UNK        -0.1931 
     34 N          25.5289   -2.0430   -0.5820 N.am      2 UNK        -0.4546 
     35 C          26.3912   -2.8404   -1.2289 C.2       1 UNK         0.5154 
     36 O          27.1924   -2.4282   -2.0712 O.2       1 UNK        -0.5181 
     37 C          28.1942    1.7618   -4.9985 C.2       5 UNK         0.5014 
     38 O          28.9145    2.3962   -5.7723 O.2       5 UNK        -0.5248 
     39 N          26.9273    2.0987   -4.7101 N.am      6 UNK        -0.4434 
     40 CA         26.2260    3.2931   -5.1927 C.3       6 UNK         0.0363 
     41 CB         24.8606    3.3992   -4.4953 C.3       6 UNK        -0.1936 
     42 C          26.0475    3.3578   -6.7184 C.2       6 UNK         0.5081 
     43 O          25.9839    4.4603   -7.2634 O.2       6 UNK        -0.5248 
     44 N          25.9844    2.1953   -7.3840 N.am      7 UNK        -0.4718 
     45 CA         25.9290    2.0680   -8.8439 C.3       7 UNK         0.0273 
     46 CB         25.7061    0.5940   -9.2196 C.3       7 UNK        -0.1935 
     47 C          27.1737    2.6189   -9.5643 C.2       7 UNK         0.5018 
     48 O          27.0586    3.0205  -10.7227 O.2       7 UNK        -0.5186 
     49 N          28.3262    2.6273   -8.8727 N.am      8 UNK        -0.4240 
     50 CA         29.6211    3.1728   -9.3037 C.3       8 UNK         0.0235 
     51 CB         29.5477    4.7107   -9.4085 C.3       8 UNK        -0.2000 
     52 C          30.1985    2.5247  -10.5796 C.2       8 UNK         0.4941 
     53 O          31.0113    3.1463  -11.2683 O.2       8 UNK        -0.5273 
     54 N          29.7989    1.2785  -10.8709 N.am      9 UNK        -0.4262 
     55 CA         30.2398    0.4866  -12.0223 C.3       9 UNK         0.0264 
     56 CB         29.2068   -0.6259  -12.2814 C.3       9 UNK        -0.1955 
     57 C          31.6599   -0.0649  -11.8010 C.2       9 UNK         0.5031 
     58 O          31.8304   -1.2708  -11.6083 O.2       9 UNK        -0.5390 
     59 N          32.6412    0.8470  -11.7503 N.am      10 UNK        -0.4204 
     60 CA         34.0578    0.6741  -11.3934 C.3       10 UNK         0.0237 
     61 CB         34.7801   -0.3060  -12.3394 C.3       10 UNK        -0.1985 
     62 C          34.2643    0.2972   -9.9151 C.2       10 UNK         0.4970 
     63 O          35.0202    0.9738   -9.2177 O.2       10 UNK        -0.4914 
     64 N          33.5706   -0.7525   -9.4653 N.am      11 UNK        -0.4285 
     65 CA         33.4530   -1.1693   -8.0655 C.3       11 UNK         0.1007 
     66 C          32.6536   -0.1421   -7.2115 C.2       11 UNK         0.5703 
     67 N          31.5013    0.3232   -7.6801 N.am      11 UNK        -0.7361 
     68 O          33.0854    0.2393   -6.1272 O.2       11 UNK        -0.4986 
     69 C69        32.8619   -2.6021   -7.9939 C.3       12 UNK        -0.0947 
     70 S70        32.9093   -3.3303   -6.3247 S.3       12 UNK        -0.2240 
     71 C71        31.1638   -3.1514   -5.8492 C.3       12 UNK         0.0194 
     72 H72        22.6775   -6.0070   -1.6111 H         1 UNK         0.0906 
     73 H73        22.1853   -4.7172   -2.7111 H         1 UNK         0.0906 
     74 H74        22.9270   -6.1870   -3.3476 H         1 UNK         0.0906 
     75 H75        24.4554   -5.3231   -0.4642 H         1 UNK         0.3140 
     76 H76        26.3147   -4.4114    0.1831 H         1 UNK         0.1085 
     77 H77        27.7358   -4.8843   -2.4658 H         1 UNK         0.0836 
     78 H78        27.0715   -6.2484   -1.6220 H         1 UNK         0.0836 
     79 H79        30.0610   -6.2997   -2.1149 H         1 UNK         0.0731 
     80 H80        31.1208   -5.7153   -0.8569 H         1 UNK         0.0731 
     81 H81        30.5262   -5.1777   -4.1386 H         1 UNK         0.1312 
     82 H82        31.5140   -1.0159   -4.2326 H         1 UNK         0.1406 
     83 H83        30.6183   -2.9202   -0.4937 H         1 UNK         0.1631 
     84 H84        32.3052   -0.3891   -1.2734 H         1 UNK         0.0717 
     85 H85        30.7040   -0.5129   -0.5849 H         1 UNK         0.0717 
     86 H86        28.7002   -0.2500   -2.2652 H         1 UNK         0.0934 
     87 H87        28.3602    1.4409   -2.3742 H         1 UNK         0.0934 
     88 H88        29.6836    0.2590   -4.8232 H         1 UNK         0.0739 
     89 H89        27.3814   -1.0811   -3.8350 H         1 UNK         0.3093 
     90 H90        26.2810   -2.3389   -6.9772 H         1 UNK         0.0818 
     91 H91        28.0820   -3.9030   -6.2630 H         1 UNK         0.0819 
     92 H92        26.5186   -4.4796   -5.7060 H         1 UNK         0.0819 
     93 H93        27.6247   -3.6990   -4.5771 H         1 UNK         0.0819 
     94 H94        25.2864   -2.7461   -4.3522 H         1 UNK         0.3041 
     95 H95        23.1785    0.1835   -4.2171 H         1 UNK         0.0784 
     96 H96        21.9440   -1.6255   -5.3806 H         1 UNK         0.0793 
     97 H97        22.6802   -2.8394   -4.3483 H         1 UNK         0.0793 
     98 H98        21.5788   -1.6435   -3.6634 H         1 UNK         0.0793 
     99 H99        23.7480   -1.8282   -2.2742 H         1 UNK         0.3024 
    100 H100       26.4339   -0.1737   -0.6475 H         1 UNK         0.1171 
    101 H101       24.8686   -0.1683    1.2797 H         1 UNK         0.0786 
    102 H102       24.4327    1.0990    0.1464 H         1 UNK         0.0786 
    103 H103       23.4903   -0.3842    0.1997 H         1 UNK         0.0786 
    104 H104       24.8850   -2.4564    0.0774 H         1 UNK         0.2977 
    105 H105       26.4050    1.5171   -4.0534 H         1 UNK         0.3127 
    106 H106       26.8252    4.1584   -4.9024 H         1 UNK         0.0770 
    107 H107       24.2307    2.5367   -4.7171 H         1 UNK         0.0814 
    108 H108       24.3219    4.2908   -4.8189 H         1 UNK         0.0814 
    109 H109       24.9715    3.4632   -3.4127 H         1 UNK         0.0814 
    110 H110       25.9391    1.3340   -6.8479 H         1 UNK         0.2983 
    111 H111       25.0711    2.6459   -9.1941 H         1 UNK         0.0947 
    112 H112       25.6671    0.4656  -10.3023 H         1 UNK         0.0806 
    113 H113       24.7641    0.2212   -8.8175 H         1 UNK         0.0806 
    114 H114       26.5063   -0.0439   -8.8424 H         1 UNK         0.0806 
    115 H115       28.2977    2.2875   -7.9172 H         1 UNK         0.3000 
    116 H116       30.3252    2.9353   -8.5052 H         1 UNK         0.0850 
    117 H117       30.5352    5.1418   -9.5781 H         1 UNK         0.0810 
    118 H118       29.1572    5.1511   -8.4909 H         1 UNK         0.0810 
    119 H119       28.9077    5.0290  -10.2320 H         1 UNK         0.0810 
    120 H120       29.1342    0.8404  -10.2502 H         1 UNK         0.3040 
    121 H121       30.2676    1.1295  -12.9049 H         1 UNK         0.0766 
    122 H122       28.2218   -0.2099  -12.4945 H         1 UNK         0.0812 
    123 H123       29.1094   -1.2974  -11.4271 H         1 UNK         0.0812 
    124 H124       29.4945   -1.2323  -13.1413 H         1 UNK         0.0812 
    125 H125       32.3342    1.8150  -11.8211 H         1 UNK         0.3205 
    126 H126       34.5153    1.6551  -11.5325 H         1 UNK         0.0754 
    127 H127       35.8473   -0.3428  -12.1168 H         1 UNK         0.0769 
    128 H128       34.6769    0.0015  -13.3800 H         1 UNK         0.0769 
    129 H129       34.3981   -1.3234  -12.2522 H         1 UNK         0.0769 
    130 H130       32.9563   -1.2138  -10.1321 H         1 UNK         0.2981 
    131 H131       34.4650   -1.2088   -7.6577 H         1 UNK         0.0541 
    132 H132       31.1251   -0.0228   -8.5460 H         1 UNK         0.3459 
    133 H133       30.9732    0.9707   -7.1171 H         1 UNK         0.3459 
    134 H134       31.8422   -2.6221   -8.3832 H         1 UNK         0.0612 
    135 H135       33.4369   -3.2651   -8.6422 H         1 UNK         0.0612 
    136 H136       30.5917   -3.9807   -6.2672 H         1 UNK         0.0624 
    137 H137       30.7442   -2.2408   -6.2790 H         1 UNK         0.0624 
@<TRIPOS>BOND
     1    1    2 1    
     2    1   72 1    
     3    1   73 1    
     4    1   74 1    
     5    2    3 2    
     6    2    4 am   BACKBONE|DICT|INTERRES
     7    4    5 1    
     8    4   75 1    
     9    5    6 1    
    10    5   35 1    
    11    5   76 1    
    12    6    7 1    
    13    6   77 1    
    14    6   78 1    
    15    7    8 1    
    16    8    9 1    
    17    8   79 1    
    18    8   80 1    
    19    9   10 ar   
    20    9   14 ar   
    21   10   11 ar   
    22   10   81 1    
    23   11   12 ar   
    24   11   71 1    
    25   12   13 ar   
    26   12   82 1    
    27   13   14 ar   
    28   13   15 1    
    29   14   83 1    
    30   15   16 1    
    31   15   84 1    
    32   15   85 1    
    33   16   17 1    
    34   17   18 1    
    35   17   86 1    
    36   17   87 1    
    37   18   19 1    
    38   18   37 1    
    39   18   88 1    
    40   19   20 am   BACKBONE|DICT|INTERRES
    41   19   89 1    
    42   20   21 2    
    43   20   22 1    
    44   22   23 1    
    45   22   24 1    
    46   22   90 1    
    47   23   91 1    
    48   23   92 1    
    49   23   93 1    
    50   24   25 am   BACKBONE|DICT|INTERRES
    51   24   94 1    
    52   25   26 2    
    53   25   27 1    
    54   27   28 1    
    55   27   29 1    
    56   27   95 1    
    57   28   96 1    
    58   28   97 1    
    59   28   98 1    
    60   29   30 am   BACKBONE|DICT|INTERRES
    61   29   99 1    
    62   30   31 2    
    63   30   32 1    
    64   32   33 1    
    65   32   34 1    
    66   32  100 1    
    67   33  101 1    
    68   33  102 1    
    69   33  103 1    
    70   34   35 am   BACKBONE|DICT|INTERRES
    71   34  104 1    
    72   35   36 2    
    73   37   38 2    
    74   37   39 am   BACKBONE|DICT|INTERRES
    75   39   40 1    
    76   39  105 1    
    77   40   41 1    
    78   40   42 1    
    79   40  106 1    
    80   41  107 1    
    81   41  108 1    
    82   41  109 1    
    83   42   43 2    
    84   42   44 am   BACKBONE|DICT|INTERRES
    85   44   45 1    
    86   44  110 1    
    87   45   46 1    
    88   45   47 1    
    89   45  111 1    
    90   46  112 1    
    91   46  113 1    
    92   46  114 1    
    93   47   48 2    
    94   47   49 am   BACKBONE|DICT|INTERRES
    95   49   50 1    
    96   49  115 1    
    97   50   51 1    
    98   50   52 1    
    99   50  116 1    
   100   51  117 1    
   101   51  118 1    
   102   51  119 1    
   103   52   53 2    
   104   52   54 am   BACKBONE|DICT|INTERRES
   105   54   55 1    
   106   54  120 1    
   107   55   56 1    
   108   55   57 1    
   109   55  121 1    
   110   56  122 1    
   111   56  123 1    
   112   56  124 1    
   113   57   58 2    
   114   57   59 am   BACKBONE|DICT|INTERRES
   115   59   60 1    
   116   59  125 1    
   117   60   61 1    
   118   60   62 1    
   119   60  126 1    
   120   61  127 1    
   121   61  128 1    
   122   61  129 1    
   123   62   63 2    
   124   62   64 am   BACKBONE|DICT|INTERRES
   125   64   65 1    
   126   64  130 1    
   127   65   66 1    
   128   65   69 1    
   129   65  131 1    
   130   66   67 am   BACKBONE|DICT|INTERRES
   131   66   68 2    
   132   67  132 1    
   133   67  133 1    
   134   69   70 1    
   135   69  134 1    
   136   69  135 1    
   137   70   71 1    
   138   71  136 1    
   139   71  137 1    
@<TRIPOS>SUBSTRUCTURE
     1 UNK         1 GROUP             0       ****    0 ROOT    
