@<TRIPOS>MOLECULE
3R137
137   139    1
SMALL
USER_CHARGES


@<TRIPOS>ATOM
      1 CA         29.3925   -7.5727   -4.2349 C.3       0 UNK        -0.2020 
      2 C          28.8620   -6.6050   -3.1874 C.2       0 UNK         0.4855 
      3 O          28.1705   -7.0261   -2.2592 O.2       0 UNK        -0.5197 
      4 N          29.1871   -5.3135   -3.3253 N.am      1 UNK        -0.4892 
      5 CA         28.6935   -4.2324   -2.4641 C.3       1 UNK         0.0835 
      6 C6         29.6218   -2.9913   -2.5350 C.3       12 UNK        -0.0855 
      7 S7         29.8896   -2.2205   -0.9069 S.3       12 UNK        -0.2931 
      8 C8         31.4483   -1.3250   -1.2135 C.3       12 UNK         0.0378 
      9 C9         31.2593   -0.2370   -2.2600 C.ar      12 UNK        -0.0802 
     10 C10        31.6240   -0.4584   -3.5933 C.ar      12 UNK        -0.0944 
     11 C11        31.3980    0.5244   -4.5617 C.ar      12 UNK        -0.0787 
     12 C12        30.8153    1.7350   -4.1848 C.ar      12 UNK        -0.0862 
     13 C13        30.4099    1.9519   -2.8652 C.ar      12 UNK        -0.0733 
     14 C14        30.6662    0.9758   -1.8991 C.ar      12 UNK        -0.0832 
     15 C15        29.6378    3.2163   -2.5111 C.3       12 UNK         0.0240 
     16 S16        27.9817    2.8944   -1.7974 S.3       12 UNK        -0.2522 
     17 C17        27.3244    1.4300   -2.6825 C.3       12 UNK        -0.0967 
     18 CA         27.3209    1.5083   -4.2308 C.3       5 UNK         0.0660 
     19 N          27.2249    0.1746   -4.8322 N.am      5 UNK        -0.4015 
     20 C          27.6995   -0.1506   -6.0446 C.2       4 UNK         0.4946 
     21 O          28.3294    0.6320   -6.7536 O.2       4 UNK        -0.5353 
     22 CA         27.3802   -1.5567   -6.5922 C.3       4 UNK         0.0277 
     23 CB         28.5494   -2.5271   -6.3663 C.3       4 UNK        -0.1981 
     24 N          26.1481   -2.1288   -6.0404 N.am      4 UNK        -0.4209 
     25 C          24.9263   -1.6263   -6.2743 C.2       3 UNK         0.4942 
     26 O          24.7192   -0.6859   -7.0398 O.2       3 UNK        -0.5208 
     27 CA         23.7420   -2.2092   -5.4813 C.3       3 UNK         0.0250 
     28 CB         23.0252   -3.2884   -6.3068 C.3       3 UNK        -0.1990 
     29 N          24.1018   -2.7585   -4.1704 N.am      3 UNK        -0.4232 
     30 C          24.7247   -2.0976   -3.1834 C.2       2 UNK         0.4993 
     31 O          25.0620   -0.9155   -3.2616 O.2       2 UNK        -0.5286 
     32 CA         25.0897   -2.9015   -1.9203 C.3       2 UNK         0.0209 
     33 CB         24.2218   -4.1646   -1.7197 C.3       2 UNK        -0.1931 
     34 N          26.5155   -3.2611   -1.8691 N.am      2 UNK        -0.4546 
     35 C          27.2324   -3.8796   -2.8205 C.2       1 UNK         0.5154 
     36 O          26.7956   -4.1523   -3.9437 O.2       1 UNK        -0.5181 
     37 C          26.2367    2.4540   -4.7780 C.2       5 UNK         0.5014 
     38 O          26.5080    3.6441   -4.9409 O.2       5 UNK        -0.5248 
     39 N          25.0509    1.9150   -5.1022 N.am      6 UNK        -0.4434 
     40 CA         23.9840    2.6459   -5.7928 C.3       6 UNK         0.0363 
     41 CB         22.6723    1.8464   -5.7342 C.3       6 UNK        -0.1936 
     42 C          24.3662    2.9828   -7.2457 C.2       6 UNK         0.5081 
     43 O          24.1264    4.1054   -7.6907 O.2       6 UNK        -0.5248 
     44 N          24.9796    2.0176   -7.9459 N.am      7 UNK        -0.4718 
     45 CA         25.5427    2.1910   -9.2882 C.3       7 UNK         0.0273 
     46 CB         25.8318    0.8084   -9.8954 C.3       7 UNK        -0.1935 
     47 C          26.8207    3.0493   -9.3017 C.2       7 UNK         0.5018 
     48 O          27.0734    3.7298  -10.2964 O.2       7 UNK        -0.5186 
     49 N          27.5971    2.9812   -8.2097 N.am      8 UNK        -0.4240 
     50 CA         28.9175    3.5833   -7.9969 C.3       8 UNK         0.0235 
     51 CB         28.8311    5.1240   -7.9769 C.3       8 UNK        -0.2000 
     52 C          29.9660    3.0363   -8.9851 C.2       8 UNK         0.4941 
     53 O          30.7460    3.8073   -9.5485 O.2       8 UNK        -0.5273 
     54 N          29.9551    1.7132   -9.1885 N.am      9 UNK        -0.4262 
     55 CA         30.8061    0.9902  -10.1310 C.3       9 UNK         0.0264 
     56 CB         30.2826    1.1869  -11.5677 C.3       9 UNK        -0.1955 
     57 C          30.8194   -0.4967   -9.7598 C.2       9 UNK         0.5031 
     58 O          29.9154   -0.9507   -9.0574 O.2       9 UNK        -0.5390 
     59 N          31.8272   -1.2247  -10.2649 N.am      10 UNK        -0.4204 
     60 CA         32.0665   -2.6632  -10.0641 C.3       10 UNK         0.0237 
     61 CB         30.9463   -3.5065  -10.7125 C.3       10 UNK        -0.1985 
     62 C          32.3179   -3.0264   -8.5862 C.2       10 UNK         0.4970 
     63 O          31.7483   -3.9927   -8.0750 O.2       10 UNK        -0.4914 
     64 N          33.1611   -2.2234   -7.9270 N.am      11 UNK        -0.4285 
     65 CA         33.5384   -2.3666   -6.5143 C.3       11 UNK         0.1007 
     66 C          34.4026   -3.6287   -6.2403 C.2       11 UNK         0.5703 
     67 N          34.3469   -4.1690   -5.0302 N.am      11 UNK        -0.7361 
     68 O          35.1512   -4.0968   -7.0970 O.2       11 UNK        -0.4986 
     69 C69        34.2400   -1.0868   -5.9754 C.3       12 UNK        -0.0947 
     70 S70        33.4610    0.5063   -6.4310 S.3       12 UNK        -0.2240 
     71 C71        31.7025    0.2683   -6.0297 C.3       12 UNK         0.0194 
     72 H72        29.9988   -7.0687   -4.9874 H         1 UNK         0.0906 
     73 H73        30.0069   -8.3384   -3.7619 H         1 UNK         0.0906 
     74 H74        28.5639   -8.0658   -4.7425 H         1 UNK         0.0906 
     75 H75        29.7196   -5.0253   -4.1331 H         1 UNK         0.3140 
     76 H76        28.6943   -4.6186   -1.4417 H         1 UNK         0.1085 
     77 H77        29.2479   -2.2251   -3.2160 H         1 UNK         0.0836 
     78 H78        30.6018   -3.2764   -2.9211 H         1 UNK         0.0836 
     79 H79        32.2242   -2.0281   -1.5201 H         1 UNK         0.0731 
     80 H80        31.7925   -0.8796   -0.2789 H         1 UNK         0.0731 
     81 H81        32.0575   -1.4048   -3.8807 H         1 UNK         0.1312 
     82 H82        30.6196    2.4867   -4.9370 H         1 UNK         0.1406 
     83 H83        30.3489    1.1364   -0.8774 H         1 UNK         0.1631 
     84 H84        29.5093    3.8480   -3.3917 H         1 UNK         0.0717 
     85 H85        30.2204    3.8026   -1.7996 H         1 UNK         0.0717 
     86 H86        27.9166    0.5716   -2.3612 H         1 UNK         0.0934 
     87 H87        26.3183    1.2338   -2.3074 H         1 UNK         0.0934 
     88 H88        28.2626    1.9388   -4.5584 H         1 UNK         0.0739 
     89 H89        26.6535   -0.4937   -4.3247 H         1 UNK         0.3093 
     90 H90        27.2460   -1.4522   -7.6709 H         1 UNK         0.0818 
     91 H91        29.4809   -2.1193   -6.7581 H         1 UNK         0.0819 
     92 H92        28.7053   -2.7383   -5.3125 H         1 UNK         0.0819 
     93 H93        28.3781   -3.4758   -6.8748 H         1 UNK         0.0819 
     94 H94        26.2487   -2.8996   -5.3845 H         1 UNK         0.3041 
     95 H95        23.0399   -1.3922   -5.3046 H         1 UNK         0.0784 
     96 H96        22.7233   -2.8987   -7.2803 H         1 UNK         0.0793 
     97 H97        23.6672   -4.1519   -6.4861 H         1 UNK         0.0793 
     98 H98        22.1219   -3.6379   -5.8063 H         1 UNK         0.0793 
     99 H99        23.9132   -3.7402   -4.0281 H         1 UNK         0.3024 
    100 H100       24.9007   -2.2334   -1.0781 H         1 UNK         0.1171 
    101 H101       24.4100   -4.6127   -0.7439 H         1 UNK         0.0786 
    102 H102       23.1580   -3.9251   -1.7581 H         1 UNK         0.0786 
    103 H103       24.4204   -4.9299   -2.4710 H         1 UNK         0.0786 
    104 H104       26.9900   -3.0182   -1.0096 H         1 UNK         0.2977 
    105 H105       24.8988    0.9310   -4.9287 H         1 UNK         0.3127 
    106 H106       23.8264    3.5882   -5.2631 H         1 UNK         0.0770 
    107 H107       22.7395    0.9082   -6.2845 H         1 UNK         0.0814 
    108 H108       21.8532    2.4179   -6.1727 H         1 UNK         0.0814 
    109 H109       22.3917    1.6153   -4.7065 H         1 UNK         0.0814 
    110 H110       25.0481    1.0880   -7.5363 H         1 UNK         0.2983 
    111 H111       24.7979    2.6929   -9.9098 H         1 UNK         0.0947 
    112 H112       26.5811    0.2642   -9.3189 H         1 UNK         0.0806 
    113 H113       26.2096    0.9007  -10.9146 H         1 UNK         0.0806 
    114 H114       24.9311    0.1955   -9.9359 H         1 UNK         0.0806 
    115 H115       27.3261    2.3156   -7.4959 H         1 UNK         0.3000 
    116 H116       29.2392    3.2615   -7.0054 H         1 UNK         0.0850 
    117 H117       28.0911    5.4674   -7.2537 H         1 UNK         0.0810 
    118 H118       28.5615    5.5290   -8.9527 H         1 UNK         0.0810 
    119 H119       29.7885    5.5642   -7.6959 H         1 UNK         0.0810 
    120 H120       29.3416    1.1213   -8.6318 H         1 UNK         0.3040 
    121 H121       31.8255    1.3738  -10.0513 H         1 UNK         0.0766 
    122 H122       30.8905    0.6419  -12.2906 H         1 UNK         0.0812 
    123 H123       30.3018    2.2368  -11.8604 H         1 UNK         0.0812 
    124 H124       29.2559    0.8324  -11.6698 H         1 UNK         0.0812 
    125 H125       32.5109   -0.7493  -10.8386 H         1 UNK         0.3205 
    126 H126       32.9930   -2.8964  -10.5912 H         1 UNK         0.0754 
    127 H127       31.1866   -4.5697  -10.6747 H         1 UNK         0.0769 
    128 H128       30.8078   -3.2432  -11.7611 H         1 UNK         0.0769 
    129 H129       29.9908   -3.3725  -10.2041 H         1 UNK         0.0769 
    130 H130       33.5959   -1.4594   -8.4209 H         1 UNK         0.2981 
    131 H131       32.6122   -2.5089   -5.9563 H         1 UNK         0.0541 
    132 H132       34.9142   -4.9786   -4.8332 H         1 UNK         0.3459 
    133 H133       33.7552   -3.7880   -4.3099 H         1 UNK         0.3459 
    134 H134       34.3133   -1.1270   -4.8875 H         1 UNK         0.0612 
    135 H135       35.2680   -1.0436   -6.3404 H         1 UNK         0.0612 
    136 H136       31.1293    0.9605   -6.6474 H         1 UNK         0.0624 
    137 H137       31.3531   -0.7193   -6.3227 H         1 UNK         0.0624 
@<TRIPOS>BOND
     1    1    2 1    
     2    1   72 1    
     3    1   73 1    
     4    1   74 1    
     5    2    3 2    
     6    2    4 am   BACKBONE|DICT|INTERRES
     7    4    5 1    
     8    4   75 1    
     9    5    6 1    
    10    5   35 1    
    11    5   76 1    
    12    6    7 1    
    13    6   77 1    
    14    6   78 1    
    15    7    8 1    
    16    8    9 1    
    17    8   79 1    
    18    8   80 1    
    19    9   10 ar   
    20    9   14 ar   
    21   10   11 ar   
    22   10   81 1    
    23   11   12 ar   
    24   11   71 1    
    25   12   13 ar   
    26   12   82 1    
    27   13   14 ar   
    28   13   15 1    
    29   14   83 1    
    30   15   16 1    
    31   15   84 1    
    32   15   85 1    
    33   16   17 1    
    34   17   18 1    
    35   17   86 1    
    36   17   87 1    
    37   18   19 1    
    38   18   37 1    
    39   18   88 1    
    40   19   20 am   BACKBONE|DICT|INTERRES
    41   19   89 1    
    42   20   21 2    
    43   20   22 1    
    44   22   23 1    
    45   22   24 1    
    46   22   90 1    
    47   23   91 1    
    48   23   92 1    
    49   23   93 1    
    50   24   25 am   BACKBONE|DICT|INTERRES
    51   24   94 1    
    52   25   26 2    
    53   25   27 1    
    54   27   28 1    
    55   27   29 1    
    56   27   95 1    
    57   28   96 1    
    58   28   97 1    
    59   28   98 1    
    60   29   30 am   BACKBONE|DICT|INTERRES
    61   29   99 1    
    62   30   31 2    
    63   30   32 1    
    64   32   33 1    
    65   32   34 1    
    66   32  100 1    
    67   33  101 1    
    68   33  102 1    
    69   33  103 1    
    70   34   35 am   BACKBONE|DICT|INTERRES
    71   34  104 1    
    72   35   36 2    
    73   37   38 2    
    74   37   39 am   BACKBONE|DICT|INTERRES
    75   39   40 1    
    76   39  105 1    
    77   40   41 1    
    78   40   42 1    
    79   40  106 1    
    80   41  107 1    
    81   41  108 1    
    82   41  109 1    
    83   42   43 2    
    84   42   44 am   BACKBONE|DICT|INTERRES
    85   44   45 1    
    86   44  110 1    
    87   45   46 1    
    88   45   47 1    
    89   45  111 1    
    90   46  112 1    
    91   46  113 1    
    92   46  114 1    
    93   47   48 2    
    94   47   49 am   BACKBONE|DICT|INTERRES
    95   49   50 1    
    96   49  115 1    
    97   50   51 1    
    98   50   52 1    
    99   50  116 1    
   100   51  117 1    
   101   51  118 1    
   102   51  119 1    
   103   52   53 2    
   104   52   54 am   BACKBONE|DICT|INTERRES
   105   54   55 1    
   106   54  120 1    
   107   55   56 1    
   108   55   57 1    
   109   55  121 1    
   110   56  122 1    
   111   56  123 1    
   112   56  124 1    
   113   57   58 2    
   114   57   59 am   BACKBONE|DICT|INTERRES
   115   59   60 1    
   116   59  125 1    
   117   60   61 1    
   118   60   62 1    
   119   60  126 1    
   120   61  127 1    
   121   61  128 1    
   122   61  129 1    
   123   62   63 2    
   124   62   64 am   BACKBONE|DICT|INTERRES
   125   64   65 1    
   126   64  130 1    
   127   65   66 1    
   128   65   69 1    
   129   65  131 1    
   130   66   67 am   BACKBONE|DICT|INTERRES
   131   66   68 2    
   132   67  132 1    
   133   67  133 1    
   134   69   70 1    
   135   69  134 1    
   136   69  135 1    
   137   70   71 1    
   138   71  136 1    
   139   71  137 1    
@<TRIPOS>SUBSTRUCTURE
     1 UNK         1 GROUP             0       ****    0 ROOT    
