@<TRIPOS>MOLECULE
3R137
137   139    1
SMALL
USER_CHARGES


@<TRIPOS>ATOM
      1 CA         25.3380   -4.6649    1.4755 C.3       0 UNK        -0.2020 
      2 C          26.0733   -3.3363    1.5584 C.2       0 UNK         0.4855 
      3 O          25.8438   -2.5624    2.4883 O.2       0 UNK        -0.5197 
      4 N          26.9450   -3.0518    0.5839 N.am      1 UNK        -0.4892 
      5 CA         27.7534   -1.8306    0.4587 C.3       1 UNK         0.0835 
      6 C6         29.0324   -2.1010   -0.3785 C.3       12 UNK        -0.0855 
      7 S7         28.7079   -2.8229   -2.0276 S.3       12 UNK        -0.2931 
      8 C8         30.3774   -3.3915   -2.4697 C.3       12 UNK         0.0378 
      9 C9         30.5360   -3.5415   -3.9755 C.ar      12 UNK        -0.0802 
     10 C10        31.4195   -2.7138   -4.6749 C.ar      12 UNK        -0.0944 
     11 C11        31.5936   -2.8555   -6.0581 C.ar      12 UNK        -0.0787 
     12 C12        30.8587   -3.8371   -6.7325 C.ar      12 UNK        -0.0862 
     13 C13        29.9589   -4.6607   -6.0496 C.ar      12 UNK        -0.0733 
     14 C14        29.8095   -4.5137   -4.6680 C.ar      12 UNK        -0.0832 
     15 C15        29.1627   -5.7229   -6.7983 C.3       12 UNK         0.0240 
     16 S16        28.0573   -5.0261   -8.0712 S.3       12 UNK        -0.2522 
     17 C17        26.8957   -4.0220   -7.0827 C.3       12 UNK        -0.0967 
     18 CA         26.6900   -2.6038   -7.6741 C.3       5 UNK         0.0660 
     19 N          25.4446   -1.9953   -7.1951 N.am      5 UNK        -0.4015 
     20 C          24.9558   -0.8110   -7.5934 C.2       4 UNK         0.4946 
     21 O          25.4784   -0.1112   -8.4600 O.2       4 UNK        -0.5353 
     22 CA         23.6909   -0.2919   -6.8883 C.3       4 UNK         0.0277 
     23 CB         22.4481   -0.5765   -7.7465 C.3       4 UNK        -0.1981 
     24 N          23.4823   -0.8218   -5.5350 N.am      4 UNK        -0.4209 
     25 C          24.3163   -0.6481   -4.5005 C.2       3 UNK         0.4942 
     26 O          25.4077   -0.0784   -4.5807 O.2       3 UNK        -0.5208 
     27 CA         23.8736   -1.2618   -3.1699 C.3       3 UNK         0.0250 
     28 CB         24.3271   -2.7294   -3.0725 C.3       3 UNK        -0.1990 
     29 N          24.4706   -0.5088   -2.0727 N.am      3 UNK        -0.4232 
     30 C          23.8564   -0.1615   -0.9370 C.2       2 UNK         0.4993 
     31 O          22.6772   -0.4216   -0.6887 O.2       2 UNK        -0.5286 
     32 CA         24.7316    0.5411    0.1182 C.3       2 UNK         0.0209 
     33 CB         23.9240    1.0339    1.3337 C.3       2 UNK        -0.1931 
     34 N          25.7698   -0.3803    0.5817 N.am      2 UNK        -0.4546 
     35 C          26.9210   -0.6288   -0.0538 C.2       1 UNK         0.5154 
     36 O          27.2922    0.0274   -1.0291 O.2       1 UNK        -0.5181 
     37 C          27.9155   -1.6934   -7.4426 C.2       5 UNK         0.5014 
     38 O          28.7424   -1.5572   -8.3463 O.2       5 UNK        -0.5248 
     39 N          27.9756   -1.0375   -6.2717 N.am      6 UNK        -0.4434 
     40 CA         29.0381   -0.0952   -5.9178 C.3       6 UNK         0.0363 
     41 CB         28.9177    0.3154   -4.4432 C.3       6 UNK        -0.1936 
     42 C          29.0659    1.1409   -6.8252 C.2       6 UNK         0.5081 
     43 O          30.1497    1.5868   -7.1970 O.2       6 UNK        -0.5248 
     44 N          27.8818    1.6484   -7.1913 N.am      7 UNK        -0.4718 
     45 CA         27.7232    2.7547   -8.1338 C.3       7 UNK         0.0273 
     46 CB         26.3038    3.3346   -8.0213 C.3       7 UNK        -0.1935 
     47 C          28.0339    2.3262   -9.5762 C.2       7 UNK         0.5018 
     48 O          28.7666    3.0331  -10.2677 O.2       7 UNK        -0.5186 
     49 N          27.4899    1.1737   -9.9940 N.am      8 UNK        -0.4240 
     50 CA         27.6345    0.6113  -11.3392 C.3       8 UNK         0.0235 
     51 CB         26.7249   -0.6191  -11.4865 C.3       8 UNK        -0.2000 
     52 C          29.0845    0.2595  -11.7061 C.2       8 UNK         0.4941 
     53 O          29.5285    0.6093  -12.8004 O.2       8 UNK        -0.5273 
     54 N          29.7980   -0.4077  -10.7890 N.am      9 UNK        -0.4262 
     55 CA         31.2038   -0.7884  -10.9603 C.3       9 UNK         0.0264 
     56 CB         31.4377   -2.1484  -10.2861 C.3       9 UNK        -0.1955 
     57 C          32.1947    0.2855  -10.4655 C.2       9 UNK         0.5031 
     58 O          33.4021    0.0824  -10.6011 O.2       9 UNK        -0.5390 
     59 N          31.6804    1.4064   -9.9365 N.am      10 UNK        -0.4204 
     60 CA         32.4000    2.6075   -9.4958 C.3       10 UNK         0.0237 
     61 CB         33.0187    3.3409  -10.7055 C.3       10 UNK        -0.1985 
     62 C          33.4137    2.3449   -8.3638 C.2       10 UNK         0.4970 
     63 O          34.5692    2.7657   -8.4573 O.2       10 UNK        -0.4914 
     64 N          32.9519    1.6739   -7.3037 N.am      11 UNK        -0.4285 
     65 CA         33.6759    1.5340   -6.0325 C.3       11 UNK         0.1007 
     66 C          33.5366    2.8126   -5.1613 C.2       11 UNK         0.5703 
     67 N          34.5006    3.0706   -4.2877 N.am      11 UNK        -0.7361 
     68 O          32.5591    3.5547   -5.2432 O.2       11 UNK        -0.4986 
     69 C69        33.2227    0.2718   -5.2529 C.3       12 UNK        -0.0947 
     70 S70        33.9394   -1.2508   -5.9568 S.3       12 UNK        -0.2240 
     71 C71        32.5272   -1.9527   -6.8691 C.3       12 UNK         0.0194 
     72 H72        24.2632   -4.4953    1.4156 H         1 UNK         0.0906 
     73 H73        25.5402   -5.2615    2.3646 H         1 UNK         0.0906 
     74 H74        25.6391   -5.2441    0.6027 H         1 UNK         0.0906 
     75 H75        27.0699   -3.7064   -0.1766 H         1 UNK         0.3140 
     76 H76        28.0864   -1.5463    1.4596 H         1 UNK         0.1085 
     77 H77        29.6760   -2.7893    0.1720 H         1 UNK         0.0836 
     78 H78        29.6175   -1.1872   -0.5003 H         1 UNK         0.0836 
     79 H79        31.1139   -2.6867   -2.0801 H         1 UNK         0.0731 
     80 H80        30.5754   -4.3470   -1.9820 H         1 UNK         0.0731 
     81 H81        31.9686   -1.9590   -4.1320 H         1 UNK         0.1312 
     82 H82        30.9706   -3.9562   -7.8011 H         1 UNK         0.1406 
     83 H83        29.1233   -5.1503   -4.1257 H         1 UNK         0.1631 
     84 H84        29.8600   -6.4098   -7.2797 H         1 UNK         0.0717 
     85 H85        28.5687   -6.3249   -6.1088 H         1 UNK         0.0717 
     86 H86        25.9486   -4.5640   -7.0745 H         1 UNK         0.0934 
     87 H87        27.2164   -3.9708   -6.0406 H         1 UNK         0.0934 
     88 H88        26.5710   -2.7058   -8.7547 H         1 UNK         0.0739 
     89 H89        24.9390   -2.4986   -6.4823 H         1 UNK         0.3093 
     90 H90        23.8017    0.7910   -6.7989 H         1 UNK         0.0818 
     91 H91        21.5559   -0.1181   -7.3194 H         1 UNK         0.0819 
     92 H92        22.5671   -0.1698   -8.7521 H         1 UNK         0.0819 
     93 H93        22.2622   -1.6464   -7.8483 H         1 UNK         0.0819 
     94 H94        22.6157   -1.3173   -5.3779 H         1 UNK         0.3041 
     95 H95        22.7840   -1.2118   -3.1120 H         1 UNK         0.0784 
     96 H96        23.8950   -3.3318   -3.8723 H         1 UNK         0.0793 
     97 H97        25.4126   -2.8209   -3.1402 H         1 UNK         0.0793 
     98 H98        24.0155   -3.1760   -2.1279 H         1 UNK         0.0793 
     99 H99        25.4371   -0.2309   -2.2146 H         1 UNK         0.3024 
    100 H100       25.1929    1.4104   -0.3566 H         1 UNK         0.1171 
    101 H101       24.5608    1.5625    2.0433 H         1 UNK         0.0786 
    102 H102       23.1386    1.7258    1.0262 H         1 UNK         0.0786 
    103 H103       23.4454    0.2094    1.8639 H         1 UNK         0.0786 
    104 H104       25.5313   -0.9928    1.3567 H         1 UNK         0.2977 
    105 H105       27.2209   -1.1390   -5.6054 H         1 UNK         0.3127 
    106 H106       29.9879   -0.6112   -6.0474 H         1 UNK         0.0770 
    107 H107       27.9668    0.8059   -4.2324 H         1 UNK         0.0814 
    108 H108       29.7122    1.0091   -4.1652 H         1 UNK         0.0814 
    109 H109       29.0013   -0.5478   -3.7854 H         1 UNK         0.0814 
    110 H110       27.0402    1.1918   -6.8684 H         1 UNK         0.2983 
    111 H111       28.4320    3.5402   -7.8611 H         1 UNK         0.0947 
    112 H112       26.1741    4.1781   -8.7006 H         1 UNK         0.0806 
    113 H113       26.1033    3.6977   -7.0132 H         1 UNK         0.0806 
    114 H114       25.5397    2.5972   -8.2694 H         1 UNK         0.0806 
    115 H115       26.8699    0.6728   -9.3587 H         1 UNK         0.3000 
    116 H116       27.2927    1.3705  -12.0459 H         1 UNK         0.0850 
    117 H117       25.6796   -0.3625  -11.3126 H         1 UNK         0.0810 
    118 H118       26.9963   -1.4066  -10.7829 H         1 UNK         0.0810 
    119 H119       26.7936   -1.0392  -12.4908 H         1 UNK         0.0810 
    120 H120       29.3520   -0.6930   -9.9174 H         1 UNK         0.3040 
    121 H121       31.4127   -0.9214  -12.0240 H         1 UNK         0.0766 
    122 H122       31.1271   -2.1289   -9.2453 H         1 UNK         0.0812 
    123 H123       32.4885   -2.4392  -10.3181 H         1 UNK         0.0812 
    124 H124       30.8683   -2.9345  -10.7819 H         1 UNK         0.0812 
    125 H125       30.6740    1.4575   -9.8510 H         1 UNK         0.3205 
    126 H126       31.6426    3.2680   -9.0702 H         1 UNK         0.0754 
    127 H127       33.8077    2.7532  -11.1760 H         1 UNK         0.0769 
    128 H128       33.4574    4.2928  -10.4035 H         1 UNK         0.0769 
    129 H129       32.2653    3.5586  -11.4627 H         1 UNK         0.0769 
    130 H130       31.9535    1.4752   -7.2721 H         1 UNK         0.2981 
    131 H131       34.7391    1.4260   -6.2579 H         1 UNK         0.0541 
    132 H132       35.3034    2.4666   -4.2025 H         1 UNK         0.3459 
    133 H133       34.4257    3.8890   -3.7041 H         1 UNK         0.3459 
    134 H134       32.1345    0.2063   -5.2159 H         1 UNK         0.0612 
    135 H135       33.5564    0.3138   -4.2144 H         1 UNK         0.0612 
    136 H136       32.9455   -2.5270   -7.6967 H         1 UNK         0.0624 
    137 H137       31.9509   -1.1416   -7.3150 H         1 UNK         0.0624 
@<TRIPOS>BOND
     1    1    2 1    
     2    1   72 1    
     3    1   73 1    
     4    1   74 1    
     5    2    3 2    
     6    2    4 am   BACKBONE|DICT|INTERRES
     7    4    5 1    
     8    4   75 1    
     9    5    6 1    
    10    5   35 1    
    11    5   76 1    
    12    6    7 1    
    13    6   77 1    
    14    6   78 1    
    15    7    8 1    
    16    8    9 1    
    17    8   79 1    
    18    8   80 1    
    19    9   10 ar   
    20    9   14 ar   
    21   10   11 ar   
    22   10   81 1    
    23   11   12 ar   
    24   11   71 1    
    25   12   13 ar   
    26   12   82 1    
    27   13   14 ar   
    28   13   15 1    
    29   14   83 1    
    30   15   16 1    
    31   15   84 1    
    32   15   85 1    
    33   16   17 1    
    34   17   18 1    
    35   17   86 1    
    36   17   87 1    
    37   18   19 1    
    38   18   37 1    
    39   18   88 1    
    40   19   20 am   BACKBONE|DICT|INTERRES
    41   19   89 1    
    42   20   21 2    
    43   20   22 1    
    44   22   23 1    
    45   22   24 1    
    46   22   90 1    
    47   23   91 1    
    48   23   92 1    
    49   23   93 1    
    50   24   25 am   BACKBONE|DICT|INTERRES
    51   24   94 1    
    52   25   26 2    
    53   25   27 1    
    54   27   28 1    
    55   27   29 1    
    56   27   95 1    
    57   28   96 1    
    58   28   97 1    
    59   28   98 1    
    60   29   30 am   BACKBONE|DICT|INTERRES
    61   29   99 1    
    62   30   31 2    
    63   30   32 1    
    64   32   33 1    
    65   32   34 1    
    66   32  100 1    
    67   33  101 1    
    68   33  102 1    
    69   33  103 1    
    70   34   35 am   BACKBONE|DICT|INTERRES
    71   34  104 1    
    72   35   36 2    
    73   37   38 2    
    74   37   39 am   BACKBONE|DICT|INTERRES
    75   39   40 1    
    76   39  105 1    
    77   40   41 1    
    78   40   42 1    
    79   40  106 1    
    80   41  107 1    
    81   41  108 1    
    82   41  109 1    
    83   42   43 2    
    84   42   44 am   BACKBONE|DICT|INTERRES
    85   44   45 1    
    86   44  110 1    
    87   45   46 1    
    88   45   47 1    
    89   45  111 1    
    90   46  112 1    
    91   46  113 1    
    92   46  114 1    
    93   47   48 2    
    94   47   49 am   BACKBONE|DICT|INTERRES
    95   49   50 1    
    96   49  115 1    
    97   50   51 1    
    98   50   52 1    
    99   50  116 1    
   100   51  117 1    
   101   51  118 1    
   102   51  119 1    
   103   52   53 2    
   104   52   54 am   BACKBONE|DICT|INTERRES
   105   54   55 1    
   106   54  120 1    
   107   55   56 1    
   108   55   57 1    
   109   55  121 1    
   110   56  122 1    
   111   56  123 1    
   112   56  124 1    
   113   57   58 2    
   114   57   59 am   BACKBONE|DICT|INTERRES
   115   59   60 1    
   116   59  125 1    
   117   60   61 1    
   118   60   62 1    
   119   60  126 1    
   120   61  127 1    
   121   61  128 1    
   122   61  129 1    
   123   62   63 2    
   124   62   64 am   BACKBONE|DICT|INTERRES
   125   64   65 1    
   126   64  130 1    
   127   65   66 1    
   128   65   69 1    
   129   65  131 1    
   130   66   67 am   BACKBONE|DICT|INTERRES
   131   66   68 2    
   132   67  132 1    
   133   67  133 1    
   134   69   70 1    
   135   69  134 1    
   136   69  135 1    
   137   70   71 1    
   138   71  136 1    
   139   71  137 1    
@<TRIPOS>SUBSTRUCTURE
     1 UNK         1 GROUP             0       ****    0 ROOT    
