@<TRIPOS>MOLECULE
3R137
137   139    1
SMALL
USER_CHARGES


@<TRIPOS>ATOM
      1 CA         25.6672   -6.8452    0.9688 C.3       0 UNK        -0.2020 
      2 C          26.6416   -5.7091    1.2416 C.2       0 UNK         0.4855 
      3 O          27.0344   -5.5002    2.3896 O.2       0 UNK        -0.5197 
      4 N          27.0330   -4.9732    0.1976 N.am      1 UNK        -0.4892 
      5 CA         27.9338   -3.8260    0.2575 C.3       1 UNK         0.0835 
      6 C6         29.4196   -4.2694    0.2123 C.3       12 UNK        -0.0855 
      7 S7         30.6075   -2.9218    0.5500 S.3       12 UNK        -0.2931 
      8 C8         31.7146   -3.0050   -0.8986 C.3       12 UNK         0.0378 
      9 C9         31.1495   -2.2526   -2.0954 C.ar      12 UNK        -0.0802 
     10 C10        31.4628   -0.9018   -2.2872 C.ar      12 UNK        -0.0944 
     11 C11        30.9405   -0.1983   -3.3772 C.ar      12 UNK        -0.0787 
     12 C12        30.0866   -0.8556   -4.2651 C.ar      12 UNK        -0.0862 
     13 C13        29.7645   -2.2017   -4.0867 C.ar      12 UNK        -0.0733 
     14 C14        30.3155   -2.9023   -3.0113 C.ar      12 UNK        -0.0832 
     15 C15        28.7815   -2.8700   -5.0330 C.3       12 UNK         0.0240 
     16 S16        29.4494   -2.9560   -6.7194 S.3       12 UNK        -0.2522 
     17 C17        27.9045   -3.0704   -7.6886 C.3       12 UNK        -0.0967 
     18 CA         27.1722   -1.7493   -8.1036 C.3       5 UNK         0.0660 
     19 N          25.7757   -1.7491   -7.6576 N.am      5 UNK        -0.4015 
     20 C          24.8303   -0.9038   -8.0914 C.2       4 UNK         0.4946 
     21 O          25.0162   -0.0867   -8.9938 O.2       4 UNK        -0.5353 
     22 CA         23.4720   -0.9261   -7.3608 C.3       4 UNK         0.0277 
     23 CB         22.4482   -1.7397   -8.1677 C.3       4 UNK        -0.1981 
     24 N          23.5084   -1.4254   -5.9752 N.am      4 UNK        -0.4209 
     25 C          24.2841   -0.9476   -4.9893 C.2       3 UNK         0.4942 
     26 O          25.1063   -0.0483   -5.1702 O.2       3 UNK        -0.5208 
     27 CA         24.1510   -1.5978   -3.5952 C.3       3 UNK         0.0250 
     28 CB         23.7304   -3.0803   -3.6552 C.3       3 UNK        -0.1990 
     29 N          25.4155   -1.5063   -2.8638 N.am      3 UNK        -0.4232 
     30 C          25.8429   -0.4632   -2.1437 C.2       2 UNK         0.4993 
     31 O          25.1420    0.5113   -1.8628 O.2       2 UNK        -0.5286 
     32 CA         27.3069   -0.5333   -1.6609 C.3       2 UNK         0.0209 
     33 CB         27.8097    0.8043   -1.0860 C.3       2 UNK        -0.1931 
     34 N          27.5574   -1.5907   -0.6771 N.am      2 UNK        -0.4546 
     35 C          27.5498   -2.9092   -0.9134 C.2       1 UNK         0.5154 
     36 O          27.2644   -3.4155   -2.0037 O.2       1 UNK        -0.5181 
     37 C          27.8972   -0.4184   -7.7668 C.2       5 UNK         0.5014 
     38 O          28.7910   -0.0249   -8.5158 O.2       5 UNK        -0.5248 
     39 N          27.4861    0.2834   -6.6959 N.am      6 UNK        -0.4434 
     40 CA         28.0119    1.6045   -6.3384 C.3       6 UNK         0.0363 
     41 CB         27.6550    1.9445   -4.8832 C.3       6 UNK        -0.1936 
     42 C          27.5139    2.7043   -7.2862 C.2       6 UNK         0.5081 
     43 O          28.2819    3.6093   -7.6081 O.2       6 UNK        -0.5248 
     44 N          26.2646    2.5885   -7.7612 N.am      7 UNK        -0.4718 
     45 CA         25.6912    3.4706   -8.7843 C.3       7 UNK         0.0273 
     46 CB         24.1681    3.2756   -8.8527 C.3       7 UNK        -0.1935 
     47 C          26.3418    3.2561  -10.1626 C.2       7 UNK         0.5018 
     48 O          26.5206    4.2209  -10.9060 O.2       7 UNK        -0.5186 
     49 N          26.7312    2.0062  -10.4522 N.am      8 UNK        -0.4240 
     50 CA         27.5417    1.6259  -11.6133 C.3       8 UNK         0.0235 
     51 CB         27.3806    0.1160  -11.8577 C.3       8 UNK        -0.2000 
     52 C          29.0359    1.9901  -11.4728 C.2       8 UNK         0.4941 
     53 O          29.7653    1.8744  -12.4584 O.2       8 UNK        -0.5273 
     54 N          29.4659    2.4012  -10.2684 N.am      9 UNK        -0.4262 
     55 CA         30.8380    2.7258   -9.8587 C.3       9 UNK         0.0264 
     56 CB         31.3525    3.9804  -10.5959 C.3       9 UNK        -0.1955 
     57 C          31.8014    1.5256   -9.9594 C.2       9 UNK         0.5031 
     58 O          32.9702    1.6995  -10.3097 O.2       9 UNK        -0.5390 
     59 N          31.3021    0.3280   -9.6302 N.am      10 UNK        -0.4204 
     60 CA         32.0232   -0.9452   -9.6874 C.3       10 UNK         0.0237 
     61 CB         31.0731   -2.0165  -10.2558 C.3       10 UNK        -0.1985 
     62 C          32.6081   -1.3515   -8.3192 C.2       10 UNK         0.4970 
     63 O          32.7914   -2.5444   -8.0726 O.2       10 UNK        -0.4914 
     64 N          32.8975   -0.3661   -7.4575 N.am      11 UNK        -0.4285 
     65 CA         33.4297   -0.5433   -6.0942 C.3       11 UNK         0.1007 
     66 C          34.8261   -1.2277   -6.0052 C.2       11 UNK         0.5703 
     67 N          35.6279   -1.2433   -7.0640 N.am      11 UNK        -0.7361 
     68 O          35.1887   -1.7497   -4.9538 O.2       11 UNK        -0.4986 
     69 C69        33.4528    0.7952   -5.3067 C.3       12 UNK        -0.0947 
     70 S70        31.8448    1.6551   -5.2660 S.3       12 UNK        -0.2240 
     71 C71        31.2675    1.2770   -3.5770 C.3       12 UNK         0.0194 
     72 H72        24.7476   -6.6950    1.5338 H         1 UNK         0.0906 
     73 H73        26.1039   -7.7955    1.2749 H         1 UNK         0.0906 
     74 H74        25.4083   -6.9162   -0.0876 H         1 UNK         0.0906 
     75 H75        26.6648   -5.1481   -0.7305 H         1 UNK         0.3140 
     76 H76        27.7497   -3.2875    1.1903 H         1 UNK         0.1085 
     77 H77        29.6467   -4.7542   -0.7377 H         1 UNK         0.0836 
     78 H78        29.5921   -5.0326    0.9729 H         1 UNK         0.0836 
     79 H79        32.6791   -2.5768   -0.6214 H         1 UNK         0.0731 
     80 H80        31.9155   -4.0455   -1.1587 H         1 UNK         0.0731 
     81 H81        32.1091   -0.3977   -1.5817 H         1 UNK         0.1312 
     82 H82        29.6725   -0.3202   -5.1055 H         1 UNK         0.1406 
     83 H83        30.0658   -3.9444   -2.8706 H         1 UNK         0.1631 
     84 H84        27.8540   -2.2957   -5.0299 H         1 UNK         0.0717 
     85 H85        28.5257   -3.8750   -4.6937 H         1 UNK         0.0717 
     86 H86        28.1658   -3.6146   -8.5978 H         1 UNK         0.0934 
     87 H87        27.2310   -3.7480   -7.1613 H         1 UNK         0.0934 
     88 H88        27.1202   -1.7642   -9.1942 H         1 UNK         0.0739 
     89 H89        25.5342   -2.3863   -6.9142 H         1 UNK         0.3093 
     90 H90        23.1250    0.1083   -7.3172 H         1 UNK         0.0818 
     91 H91        22.3812   -1.3753   -9.1941 H         1 UNK         0.0819 
     92 H92        22.7168   -2.7959   -8.2142 H         1 UNK         0.0819 
     93 H93        21.4500   -1.6643   -7.7359 H         1 UNK         0.0819 
     94 H94        22.8644   -2.1710   -5.7524 H         1 UNK         0.3041 
     95 H95        23.3839   -1.0438   -3.0506 H         1 UNK         0.0784 
     96 H96        22.7241   -3.1985   -4.0585 H         1 UNK         0.0793 
     97 H97        24.4106   -3.6717   -4.2700 H         1 UNK         0.0793 
     98 H98        23.7199   -3.5239   -2.6591 H         1 UNK         0.0793 
     99 H99        26.0527   -2.2935   -2.9489 H         1 UNK         0.3024 
    100 H100       27.9095   -0.7523   -2.5425 H         1 UNK         0.1171 
    101 H101       27.6498    1.6213   -1.7906 H         1 UNK         0.0786 
    102 H102       27.2935    1.0665   -0.1618 H         1 UNK         0.0786 
    103 H103       28.8793    0.7662   -0.8772 H         1 UNK         0.0786 
    104 H104       27.7997   -1.2753    0.2511 H         1 UNK         0.2977 
    105 H105       26.6915   -0.0422   -6.1488 H         1 UNK         0.3127 
    106 H106       29.0995    1.5705   -6.4217 H         1 UNK         0.0770 
    107 H107       28.1444    2.8679   -4.5712 H         1 UNK         0.0814 
    108 H108       26.5821    2.0854   -4.7480 H         1 UNK         0.0814 
    109 H109       27.9757    1.1606   -4.2000 H         1 UNK         0.0814 
    110 H110       25.7054    1.7989   -7.4696 H         1 UNK         0.2983 
    111 H111       25.8867    4.5035   -8.4868 H         1 UNK         0.0947 
    112 H112       23.8976    2.2695   -9.1726 H         1 UNK         0.0806 
    113 H113       23.7211    3.9712   -9.5643 H         1 UNK         0.0806 
    114 H114       23.7001    3.4581   -7.8853 H         1 UNK         0.0806 
    115 H115       26.4678    1.2652   -9.8117 H         1 UNK         0.3000 
    116 H116       27.1576    2.1564  -12.4872 H         1 UNK         0.0850 
    117 H117       27.8698   -0.1819  -12.7860 H         1 UNK         0.0810 
    118 H118       26.3308   -0.1674  -11.9384 H         1 UNK         0.0810 
    119 H119       27.8283   -0.4706  -11.0560 H         1 UNK         0.0810 
    120 H120       28.7807    2.4534   -9.5261 H         1 UNK         0.3040 
    121 H121       30.7815    2.9720   -8.7972 H         1 UNK         0.0766 
    122 H122       32.3124    4.3049  -10.1923 H         1 UNK         0.0812 
    123 H123       30.6589    4.8144  -10.4889 H         1 UNK         0.0812 
    124 H124       31.4944    3.7952  -11.6610 H         1 UNK         0.0812 
    125 H125       30.3404    0.2741   -9.2871 H         1 UNK         0.3205 
    126 H126       32.8671   -0.8563  -10.3744 H         1 UNK         0.0754 
    127 H127       31.5863   -2.9689  -10.3940 H         1 UNK         0.0769 
    128 H128       30.6783   -1.7191  -11.2276 H         1 UNK         0.0769 
    129 H129       30.2265   -2.1935   -9.5924 H         1 UNK         0.0769 
    130 H130       32.7241    0.5858   -7.7409 H         1 UNK         0.2981 
    131 H131       32.7374   -1.2144   -5.5826 H         1 UNK         0.0541 
    132 H132       36.5284   -1.6902   -6.9950 H         1 UNK         0.3459 
    133 H133       35.3396   -0.8171   -7.9298 H         1 UNK         0.3459 
    134 H134       34.1783    1.4790   -5.7510 H         1 UNK         0.0612 
    135 H135       33.7866    0.6292   -4.2806 H         1 UNK         0.0612 
    136 H136       30.3700    1.8626   -3.3757 H         1 UNK         0.0624 
    137 H137       32.0201    1.6118   -2.8616 H         1 UNK         0.0624 
@<TRIPOS>BOND
     1    1    2 1    
     2    1   72 1    
     3    1   73 1    
     4    1   74 1    
     5    2    3 2    
     6    2    4 am   BACKBONE|DICT|INTERRES
     7    4    5 1    
     8    4   75 1    
     9    5    6 1    
    10    5   35 1    
    11    5   76 1    
    12    6    7 1    
    13    6   77 1    
    14    6   78 1    
    15    7    8 1    
    16    8    9 1    
    17    8   79 1    
    18    8   80 1    
    19    9   10 ar   
    20    9   14 ar   
    21   10   11 ar   
    22   10   81 1    
    23   11   12 ar   
    24   11   71 1    
    25   12   13 ar   
    26   12   82 1    
    27   13   14 ar   
    28   13   15 1    
    29   14   83 1    
    30   15   16 1    
    31   15   84 1    
    32   15   85 1    
    33   16   17 1    
    34   17   18 1    
    35   17   86 1    
    36   17   87 1    
    37   18   19 1    
    38   18   37 1    
    39   18   88 1    
    40   19   20 am   BACKBONE|DICT|INTERRES
    41   19   89 1    
    42   20   21 2    
    43   20   22 1    
    44   22   23 1    
    45   22   24 1    
    46   22   90 1    
    47   23   91 1    
    48   23   92 1    
    49   23   93 1    
    50   24   25 am   BACKBONE|DICT|INTERRES
    51   24   94 1    
    52   25   26 2    
    53   25   27 1    
    54   27   28 1    
    55   27   29 1    
    56   27   95 1    
    57   28   96 1    
    58   28   97 1    
    59   28   98 1    
    60   29   30 am   BACKBONE|DICT|INTERRES
    61   29   99 1    
    62   30   31 2    
    63   30   32 1    
    64   32   33 1    
    65   32   34 1    
    66   32  100 1    
    67   33  101 1    
    68   33  102 1    
    69   33  103 1    
    70   34   35 am   BACKBONE|DICT|INTERRES
    71   34  104 1    
    72   35   36 2    
    73   37   38 2    
    74   37   39 am   BACKBONE|DICT|INTERRES
    75   39   40 1    
    76   39  105 1    
    77   40   41 1    
    78   40   42 1    
    79   40  106 1    
    80   41  107 1    
    81   41  108 1    
    82   41  109 1    
    83   42   43 2    
    84   42   44 am   BACKBONE|DICT|INTERRES
    85   44   45 1    
    86   44  110 1    
    87   45   46 1    
    88   45   47 1    
    89   45  111 1    
    90   46  112 1    
    91   46  113 1    
    92   46  114 1    
    93   47   48 2    
    94   47   49 am   BACKBONE|DICT|INTERRES
    95   49   50 1    
    96   49  115 1    
    97   50   51 1    
    98   50   52 1    
    99   50  116 1    
   100   51  117 1    
   101   51  118 1    
   102   51  119 1    
   103   52   53 2    
   104   52   54 am   BACKBONE|DICT|INTERRES
   105   54   55 1    
   106   54  120 1    
   107   55   56 1    
   108   55   57 1    
   109   55  121 1    
   110   56  122 1    
   111   56  123 1    
   112   56  124 1    
   113   57   58 2    
   114   57   59 am   BACKBONE|DICT|INTERRES
   115   59   60 1    
   116   59  125 1    
   117   60   61 1    
   118   60   62 1    
   119   60  126 1    
   120   61  127 1    
   121   61  128 1    
   122   61  129 1    
   123   62   63 2    
   124   62   64 am   BACKBONE|DICT|INTERRES
   125   64   65 1    
   126   64  130 1    
   127   65   66 1    
   128   65   69 1    
   129   65  131 1    
   130   66   67 am   BACKBONE|DICT|INTERRES
   131   66   68 2    
   132   67  132 1    
   133   67  133 1    
   134   69   70 1    
   135   69  134 1    
   136   69  135 1    
   137   70   71 1    
   138   71  136 1    
   139   71  137 1    
@<TRIPOS>SUBSTRUCTURE
     1 UNK         1 GROUP             0       ****    0 ROOT    
