@<TRIPOS>MOLECULE
3R137
137   139    1
SMALL
USER_CHARGES


@<TRIPOS>ATOM
      1 CA         26.6284   -2.4592    1.3569 C.3       0 UNK        -0.2020 
      2 C          26.8711   -2.6742   -0.1288 C.2       0 UNK         0.4855 
      3 O          25.9864   -2.3910   -0.9346 O.2       0 UNK        -0.5197 
      4 N          28.0678   -3.1556   -0.4941 N.am      1 UNK        -0.4892 
      5 CA         28.5115   -3.4674   -1.8615 C.3       1 UNK         0.0835 
      6 C6         27.9116   -4.7964   -2.4048 C.3       12 UNK        -0.0855 
      7 S7         28.8953   -6.2187   -1.8069 S.3       12 UNK        -0.2931 
      8 C8         29.9311   -6.6686   -3.2511 C.3       12 UNK         0.0378 
      9 C9         30.4511   -5.4588   -4.0207 C.ar      12 UNK        -0.0802 
     10 C10        31.3694   -4.5808   -3.4368 C.ar      12 UNK        -0.0944 
     11 C11        31.7367   -3.4011   -4.0925 C.ar      12 UNK        -0.0787 
     12 C12        31.2284   -3.1358   -5.3693 C.ar      12 UNK        -0.0862 
     13 C13        30.3446   -4.0279   -5.9814 C.ar      12 UNK        -0.0733 
     14 C14        29.9633   -5.1884   -5.3025 C.ar      12 UNK        -0.0832 
     15 C15        29.8007   -3.7525   -7.3761 C.3       12 UNK         0.0240 
     16 S16        27.9926   -3.5503   -7.3790 S.3       12 UNK        -0.2522 
     17 C17        27.7851   -1.7419   -7.2597 C.3       12 UNK        -0.0967 
     18 CA         26.2762   -1.4007   -7.1682 C.3       5 UNK         0.0660 
     19 N          25.7276   -1.6427   -5.8295 N.am      5 UNK        -0.4015 
     20 C          24.4199   -1.7799   -5.5634 C.2       4 UNK         0.4946 
     21 O          23.5340   -1.7332   -6.4185 O.2       4 UNK        -0.5353 
     22 CA         24.0258   -2.0108   -4.0957 C.3       4 UNK         0.0277 
     23 CB         24.2923   -3.4663   -3.6782 C.3       4 UNK        -0.1981 
     24 N          24.7158   -1.0972   -3.1851 N.am      4 UNK        -0.4209 
     25 C          24.4771    0.2200   -3.1079 C.2       3 UNK         0.4942 
     26 O          23.5892    0.7949   -3.7376 O.2       3 UNK        -0.5208 
     27 CA         25.3909    1.0434   -2.1845 C.3       3 UNK         0.0250 
     28 CB         24.8769    1.0163   -0.7358 C.3       3 UNK        -0.1990 
     29 N          26.7843    0.5947   -2.2254 N.am      3 UNK        -0.4232 
     30 C          27.5911    0.7319   -3.2874 C.2       2 UNK         0.4993 
     31 O          27.2614    1.2849   -4.3346 O.2       2 UNK        -0.5286 
     32 CA         28.9919    0.1090   -3.1863 C.3       2 UNK         0.0209 
     33 CB         29.9858    1.0986   -2.5554 C.3       2 UNK        -0.1931 
     34 N          29.0098   -1.1504   -2.4397 N.am      2 UNK        -0.4546 
     35 C          28.3647   -2.2644   -2.8172 C.2       1 UNK         0.5154 
     36 O          27.6640   -2.3330   -3.8291 O.2       1 UNK        -0.5181 
     37 C          25.9426    0.0086   -7.6979 C.2       5 UNK         0.5014 
     38 O          25.5774    0.1220   -8.8688 O.2       5 UNK        -0.5248 
     39 N          26.0204    1.0390   -6.8412 N.am      6 UNK        -0.4434 
     40 CA         25.5965    2.4247   -7.0767 C.3       6 UNK         0.0363 
     41 CB         24.0544    2.5176   -7.0425 C.3       6 UNK        -0.1936 
     42 C          26.2195    3.0505   -8.3407 C.2       6 UNK         0.5081 
     43 O          27.3660    3.4942   -8.2925 O.2       6 UNK        -0.5248 
     44 N          25.4533    3.0819   -9.4398 N.am      7 UNK        -0.4718 
     45 CA         25.8629    3.5980  -10.7481 C.3       7 UNK         0.0273 
     46 CB         24.6033    3.8836  -11.5831 C.3       7 UNK        -0.1935 
     47 C          26.8220    2.6685  -11.5176 C.2       7 UNK         0.5018 
     48 O          27.4316    3.1235  -12.4875 O.2       7 UNK        -0.5186 
     49 N          26.9342    1.3982  -11.1006 N.am      8 UNK        -0.4240 
     50 CA         27.8863    0.4209  -11.6355 C.3       8 UNK         0.0235 
     51 CB         27.3195   -0.9992  -11.4319 C.3       8 UNK        -0.2000 
     52 C          29.2875    0.6055  -11.0144 C.2       8 UNK         0.4941 
     53 O          29.6147    1.6864  -10.5185 O.2       8 UNK        -0.5273 
     54 N          30.1098   -0.4518  -11.0438 N.am      9 UNK        -0.4262 
     55 CA         31.4908   -0.4830  -10.5449 C.3       9 UNK         0.0264 
     56 CB         32.2131   -1.6906  -11.1727 C.3       9 UNK        -0.1955 
     57 C          31.5952   -0.4696   -9.0030 C.2       9 UNK         0.5031 
     58 O          32.2502   -1.3373   -8.4231 O.2       9 UNK        -0.5390 
     59 N          30.9420    0.5075   -8.3626 N.am      10 UNK        -0.4204 
     60 CA         30.9810    0.7630   -6.9230 C.3       10 UNK         0.0237 
     61 CB         29.9612    1.8599   -6.5811 C.3       10 UNK        -0.1985 
     62 C          32.3934    1.1573   -6.4562 C.2       10 UNK         0.4970 
     63 O          33.0878    1.8929   -7.1616 O.2       10 UNK        -0.4914 
     64 N          32.7828    0.6628   -5.2761 N.am      11 UNK        -0.4285 
     65 CA         34.1350    0.8140   -4.7094 C.3       11 UNK         0.1007 
     66 C          34.4554    2.2261   -4.1364 C.2       11 UNK         0.5703 
     67 N          33.4936    3.1341   -4.0193 N.am      11 UNK        -0.7361 
     68 O          35.6031    2.5040   -3.7965 O.2       11 UNK        -0.4986 
     69 C69        34.4562   -0.2952   -3.6690 C.3       12 UNK        -0.0947 
     70 S70        34.1305   -1.9822   -4.2918 S.3       12 UNK        -0.2240 
     71 C71        32.6022   -2.3702   -3.3837 C.3       12 UNK         0.0194 
     72 H72        25.7738   -3.0506    1.6843 H         1 UNK         0.0906 
     73 H73        27.4903   -2.7466    1.9587 H         1 UNK         0.0906 
     74 H74        26.4110   -1.4097    1.5533 H         1 UNK         0.0906 
     75 H75        28.7444   -3.3634    0.2279 H         1 UNK         0.3140 
     76 H76        29.5891   -3.5955   -1.7770 H         1 UNK         0.1085 
     77 H77        27.8762   -4.8272   -3.4943 H         1 UNK         0.0836 
     78 H78        26.8763   -4.9153   -2.0820 H         1 UNK         0.0836 
     79 H79        29.3460   -7.3156   -3.9066 H         1 UNK         0.0731 
     80 H80        30.7754   -7.2686   -2.9088 H         1 UNK         0.0731 
     81 H81        31.7404   -4.7854   -2.4415 H         1 UNK         0.1312 
     82 H82        31.5228   -2.2342   -5.8865 H         1 UNK         0.1406 
     83 H83        29.2569   -5.8642   -5.7657 H         1 UNK         0.1631 
     84 H84        30.0595   -4.5910   -8.0238 H         1 UNK         0.0717 
     85 H85        30.2650   -2.8727   -7.8177 H         1 UNK         0.0717 
     86 H86        28.3323   -1.3602   -6.3960 H         1 UNK         0.0934 
     87 H87        28.2457   -1.2939   -8.1423 H         1 UNK         0.0934 
     88 H88        25.7490   -2.0774   -7.8456 H         1 UNK         0.0739 
     89 H89        26.3995   -1.7733   -5.0751 H         1 UNK         0.3093 
     90 H90        22.9531   -1.8266   -4.0056 H         1 UNK         0.0818 
     91 H91        23.7509   -4.1617   -4.3208 H         1 UNK         0.0819 
     92 H92        25.3506   -3.7192   -3.7430 H         1 UNK         0.0819 
     93 H93        23.9688   -3.6502   -2.6535 H         1 UNK         0.0819 
     94 H94        25.4132   -1.5070   -2.5685 H         1 UNK         0.3041 
     95 H95        25.3635    2.0781   -2.5337 H         1 UNK         0.0784 
     96 H96        23.8521    1.3864   -0.6812 H         1 UNK         0.0793 
     97 H97        24.8795    0.0078   -0.3215 H         1 UNK         0.0793 
     98 H98        25.4834    1.6485   -0.0870 H         1 UNK         0.0793 
     99 H99        27.1268    0.0888   -1.4221 H         1 UNK         0.3024 
    100 H100       29.3176   -0.1087   -4.2053 H         1 UNK         0.1171 
    101 H101       29.7343    1.3143   -1.5163 H         1 UNK         0.0786 
    102 H102       31.0055    0.7151   -2.5784 H         1 UNK         0.0786 
    103 H103       29.9862    2.0498   -3.0891 H         1 UNK         0.0786 
    104 H104       29.5323   -1.1638   -1.5755 H         1 UNK         0.2977 
    105 H105       26.4014    0.8794   -5.9097 H         1 UNK         0.3127 
    106 H106       25.9756    3.0049   -6.2338 H         1 UNK         0.0770 
    107 H107       23.5819    1.8691   -7.7809 H         1 UNK         0.0814 
    108 H108       23.7152    3.5379   -7.2264 H         1 UNK         0.0814 
    109 H109       23.6715    2.2266   -6.0645 H         1 UNK         0.0814 
    110 H110       24.5399    2.6538   -9.3882 H         1 UNK         0.2983 
    111 H111       26.3910    4.5412  -10.5914 H         1 UNK         0.0947 
    112 H112       24.0282    2.9756  -11.7692 H         1 UNK         0.0806 
    113 H113       24.8653    4.3075  -12.5536 H         1 UNK         0.0806 
    114 H114       23.9502    4.6006  -11.0853 H         1 UNK         0.0806 
    115 H115       26.4002    1.1061  -10.2854 H         1 UNK         0.3000 
    116 H116       27.9888    0.5881  -12.7098 H         1 UNK         0.0850 
    117 H117       27.8862   -1.7425  -11.9934 H         1 UNK         0.0810 
    118 H118       26.2883   -1.0647  -11.7800 H         1 UNK         0.0810 
    119 H119       27.3305   -1.2973  -10.3837 H         1 UNK         0.0810 
    120 H120       29.7631   -1.3127  -11.4414 H         1 UNK         0.3040 
    121 H121       31.9963    0.4190  -10.8966 H         1 UNK         0.0766 
    122 H122       33.2631   -1.7157  -10.8775 H         1 UNK         0.0812 
    123 H123       32.1884   -1.6480  -12.2617 H         1 UNK         0.0812 
    124 H124       31.7647   -2.6350  -10.8614 H         1 UNK         0.0812 
    125 H125       30.4426    1.1794   -8.9431 H         1 UNK         0.3205 
    126 H126       30.6815   -0.1553   -6.4168 H         1 UNK         0.0754 
    127 H127       29.9644    2.0903   -5.5161 H         1 UNK         0.0769 
    128 H128       28.9477    1.5530   -6.8402 H         1 UNK         0.0769 
    129 H129       30.1724    2.7874   -7.1152 H         1 UNK         0.0769 
    130 H130       32.1542    0.0767   -4.7524 H         1 UNK         0.2981 
    131 H131       34.8349    0.6768   -5.5361 H         1 UNK         0.0541 
    132 H132       32.5539    2.9258   -4.3122 H         1 UNK         0.3459 
    133 H133       33.7187    4.0444   -3.6504 H         1 UNK         0.3459 
    134 H134       35.5106   -0.2525   -3.3901 H         1 UNK         0.0612 
    135 H135       33.8982   -0.1297   -2.7456 H         1 UNK         0.0612 
    136 H136       32.8694   -2.7035   -2.3797 H         1 UNK         0.0624 
    137 H137       32.0057   -1.4667   -3.2576 H         1 UNK         0.0624 
@<TRIPOS>BOND
     1    1    2 1    
     2    1   72 1    
     3    1   73 1    
     4    1   74 1    
     5    2    3 2    
     6    2    4 am   BACKBONE|DICT|INTERRES
     7    4    5 1    
     8    4   75 1    
     9    5    6 1    
    10    5   35 1    
    11    5   76 1    
    12    6    7 1    
    13    6   77 1    
    14    6   78 1    
    15    7    8 1    
    16    8    9 1    
    17    8   79 1    
    18    8   80 1    
    19    9   10 ar   
    20    9   14 ar   
    21   10   11 ar   
    22   10   81 1    
    23   11   12 ar   
    24   11   71 1    
    25   12   13 ar   
    26   12   82 1    
    27   13   14 ar   
    28   13   15 1    
    29   14   83 1    
    30   15   16 1    
    31   15   84 1    
    32   15   85 1    
    33   16   17 1    
    34   17   18 1    
    35   17   86 1    
    36   17   87 1    
    37   18   19 1    
    38   18   37 1    
    39   18   88 1    
    40   19   20 am   BACKBONE|DICT|INTERRES
    41   19   89 1    
    42   20   21 2    
    43   20   22 1    
    44   22   23 1    
    45   22   24 1    
    46   22   90 1    
    47   23   91 1    
    48   23   92 1    
    49   23   93 1    
    50   24   25 am   BACKBONE|DICT|INTERRES
    51   24   94 1    
    52   25   26 2    
    53   25   27 1    
    54   27   28 1    
    55   27   29 1    
    56   27   95 1    
    57   28   96 1    
    58   28   97 1    
    59   28   98 1    
    60   29   30 am   BACKBONE|DICT|INTERRES
    61   29   99 1    
    62   30   31 2    
    63   30   32 1    
    64   32   33 1    
    65   32   34 1    
    66   32  100 1    
    67   33  101 1    
    68   33  102 1    
    69   33  103 1    
    70   34   35 am   BACKBONE|DICT|INTERRES
    71   34  104 1    
    72   35   36 2    
    73   37   38 2    
    74   37   39 am   BACKBONE|DICT|INTERRES
    75   39   40 1    
    76   39  105 1    
    77   40   41 1    
    78   40   42 1    
    79   40  106 1    
    80   41  107 1    
    81   41  108 1    
    82   41  109 1    
    83   42   43 2    
    84   42   44 am   BACKBONE|DICT|INTERRES
    85   44   45 1    
    86   44  110 1    
    87   45   46 1    
    88   45   47 1    
    89   45  111 1    
    90   46  112 1    
    91   46  113 1    
    92   46  114 1    
    93   47   48 2    
    94   47   49 am   BACKBONE|DICT|INTERRES
    95   49   50 1    
    96   49  115 1    
    97   50   51 1    
    98   50   52 1    
    99   50  116 1    
   100   51  117 1    
   101   51  118 1    
   102   51  119 1    
   103   52   53 2    
   104   52   54 am   BACKBONE|DICT|INTERRES
   105   54   55 1    
   106   54  120 1    
   107   55   56 1    
   108   55   57 1    
   109   55  121 1    
   110   56  122 1    
   111   56  123 1    
   112   56  124 1    
   113   57   58 2    
   114   57   59 am   BACKBONE|DICT|INTERRES
   115   59   60 1    
   116   59  125 1    
   117   60   61 1    
   118   60   62 1    
   119   60  126 1    
   120   61  127 1    
   121   61  128 1    
   122   61  129 1    
   123   62   63 2    
   124   62   64 am   BACKBONE|DICT|INTERRES
   125   64   65 1    
   126   64  130 1    
   127   65   66 1    
   128   65   69 1    
   129   65  131 1    
   130   66   67 am   BACKBONE|DICT|INTERRES
   131   66   68 2    
   132   67  132 1    
   133   67  133 1    
   134   69   70 1    
   135   69  134 1    
   136   69  135 1    
   137   70   71 1    
   138   71  136 1    
   139   71  137 1    
@<TRIPOS>SUBSTRUCTURE
     1 UNK         1 GROUP             0       ****    0 ROOT    
