@<TRIPOS>MOLECULE
3R137
137   139    1
SMALL
USER_CHARGES


@<TRIPOS>ATOM
      1 CA         26.9735   -6.6624    1.1844 C.3       0 UNK        -0.2020 
      2 C          27.1971   -5.3715    0.4122 C.2       0 UNK         0.4855 
      3 O          26.8960   -4.2905    0.9206 O.2       0 UNK        -0.5197 
      4 N          27.7177   -5.4689   -0.8172 N.am      1 UNK        -0.4892 
      5 CA         28.0074   -4.3384   -1.7068 C.3       1 UNK         0.0835 
      6 C6         29.1581   -4.6626   -2.6968 C.3       12 UNK        -0.0855 
      7 S7         30.6961   -5.2880   -1.9284 S.3       12 UNK        -0.2931 
      8 C8         31.1864   -3.9531   -0.7827 C.3       12 UNK         0.0378 
      9 C9         31.1907   -2.5753   -1.4332 C.ar      12 UNK        -0.0802 
     10 C10        32.0504   -2.2899   -2.4984 C.ar      12 UNK        -0.0944 
     11 C11        32.0343   -1.0296   -3.1057 C.ar      12 UNK        -0.0787 
     12 C12        31.1445   -0.0532   -2.6452 C.ar      12 UNK        -0.0862 
     13 C13        30.2836   -0.3274   -1.5790 C.ar      12 UNK        -0.0733 
     14 C14        30.3270   -1.5817   -0.9655 C.ar      12 UNK        -0.0832 
     15 C15        29.2914    0.7151   -1.0900 C.3       12 UNK         0.0240 
     16 S16        27.5890    0.1755   -1.4385 S.3       12 UNK        -0.2522 
     17 C17        26.9332    1.5657   -2.4181 C.3       12 UNK        -0.0967 
     18 CA         27.3844    1.5669   -3.9020 C.3       5 UNK         0.0660 
     19 N          27.2135    0.2665   -4.5565 N.am      5 UNK        -0.4015 
     20 C          27.7180   -0.0510   -5.7593 C.2       4 UNK         0.4946 
     21 O          28.3926    0.7165   -6.4448 O.2       4 UNK        -0.5353 
     22 CA         27.3724   -1.4375   -6.3272 C.3       4 UNK         0.0277 
     23 CB         28.4608   -2.4500   -5.9498 C.3       4 UNK        -0.1981 
     24 N          26.0575   -1.9243   -5.9016 N.am      4 UNK        -0.4209 
     25 C          24.9025   -1.3160   -6.2165 C.2       3 UNK         0.4942 
     26 O          24.8372   -0.3109   -6.9249 O.2       3 UNK        -0.5208 
     27 CA         23.6044   -1.8747   -5.6095 C.3       3 UNK         0.0250 
     28 CB         22.9009   -2.7996   -6.6148 C.3       3 UNK        -0.1990 
     29 N          23.7801   -2.5834   -4.3388 N.am      3 UNK        -0.4232 
     30 C          24.3136   -2.0698   -3.2207 C.2       2 UNK         0.4993 
     31 O          24.7552   -0.9227   -3.1414 O.2       2 UNK        -0.5286 
     32 CA         24.3886   -2.9936   -1.9895 C.3       2 UNK         0.0209 
     33 CB         23.5267   -4.2714   -2.1097 C.3       2 UNK        -0.1931 
     34 N          25.7626   -3.3636   -1.6301 N.am      2 UNK        -0.4546 
     35 C          26.7178   -3.8734   -2.4225 C.2       1 UNK         0.5154 
     36 O          26.5909   -4.0288   -3.6400 O.2       1 UNK        -0.5181 
     37 C          26.6524    2.6872   -4.6681 C.2       5 UNK         0.5014 
     38 O          27.1585    3.8081   -4.7335 O.2       5 UNK        -0.5248 
     39 N          25.4770    2.3622   -5.2267 N.am      6 UNK        -0.4434 
     40 CA         24.6722    3.2639   -6.0490 C.3       6 UNK         0.0363 
     41 CB         23.2110    2.7854   -6.0593 C.3       6 UNK        -0.1936 
     42 C          25.2212    3.3724   -7.4794 C.2       6 UNK         0.5081 
     43 O          25.2584    4.4744   -8.0272 O.2       6 UNK        -0.5248 
     44 N          25.6311    2.2344   -8.0591 N.am      7 UNK        -0.4718 
     45 CA         26.1862    2.1476   -9.4116 C.3       7 UNK         0.0273 
     46 CB         26.2668    0.6746   -9.8432 C.3       7 UNK        -0.1935 
     47 C          27.5609    2.8199   -9.5493 C.2       7 UNK         0.5018 
     48 O          27.8167    3.4495  -10.5768 O.2       7 UNK        -0.5186 
     49 N          28.4233    2.6530   -8.5340 N.am      8 UNK        -0.4240 
     50 CA         29.8035    3.1427   -8.3998 C.3       8 UNK         0.0235 
     51 CB         29.8702    4.6817   -8.4306 C.3       8 UNK        -0.2000 
     52 C          30.7921    2.5136   -9.3972 C.2       8 UNK         0.4941 
     53 O          31.8246    1.9932   -8.9779 O.2       8 UNK        -0.5273 
     54 N          30.4465    2.5216  -10.6909 N.am      9 UNK        -0.4262 
     55 CA         31.2108    1.9306  -11.7956 C.3       9 UNK         0.0264 
     56 CB         30.5658    2.3517  -13.1262 C.3       9 UNK        -0.1955 
     57 C          31.3445    0.3966  -11.7220 C.2       9 UNK         0.5031 
     58 O          32.2090   -0.1651  -12.3955 O.2       9 UNK        -0.5390 
     59 N          30.4977   -0.2507  -10.9097 N.am      10 UNK        -0.4204 
     60 CA         30.5532   -1.6777  -10.5917 C.3       10 UNK         0.0237 
     61 CB         29.2531   -2.0757   -9.8744 C.3       10 UNK        -0.1985 
     62 C          31.7730   -2.0646   -9.7335 C.2       10 UNK         0.4970 
     63 O          32.2060   -3.2156   -9.8023 O.2       10 UNK        -0.4914 
     64 N          32.2918   -1.1209   -8.9366 N.am      11 UNK        -0.4285 
     65 CA         33.4748   -1.3073   -8.0878 C.3       11 UNK         0.1007 
     66 C          34.7865   -1.2936   -8.9170 C.2       11 UNK         0.5703 
     67 N          35.7635   -2.1100   -8.5452 N.am      11 UNK        -0.7361 
     68 O          34.9439   -0.5249   -9.8637 O.2       11 UNK        -0.4986 
     69 C69        33.5228   -0.2516   -6.9556 C.3       12 UNK        -0.0947 
     70 S70        32.1128   -0.4208   -5.8097 S.3       12 UNK        -0.2240 
     71 C71        32.9913   -0.7169   -4.2455 C.3       12 UNK         0.0194 
     72 H72        27.2924   -7.5373    0.6180 H         1 UNK         0.0906 
     73 H73        27.5332   -6.6414    2.1191 H         1 UNK         0.0906 
     74 H74        25.9165   -6.7786    1.4223 H         1 UNK         0.0906 
     75 H75        27.9381   -6.3804   -1.1935 H         1 UNK         0.3140 
     76 H76        28.3301   -3.4956   -1.0959 H         1 UNK         0.1085 
     77 H77        29.4197   -3.7748   -3.2710 H         1 UNK         0.0836 
     78 H78        28.8352   -5.4079   -3.4264 H         1 UNK         0.0836 
     79 H79        32.1849   -4.1681   -0.3999 H         1 UNK         0.0731 
     80 H80        30.5205   -3.9739    0.0815 H         1 UNK         0.0731 
     81 H81        32.7266   -3.0547   -2.8556 H         1 UNK         0.1312 
     82 H82        31.1217    0.9163   -3.1242 H         1 UNK         0.1406 
     83 H83        29.6640   -1.7858   -0.1354 H         1 UNK         0.1631 
     84 H84        29.4891    1.6838   -1.5510 H         1 UNK         0.0717 
     85 H85        29.4089    0.8557   -0.0147 H         1 UNK         0.0717 
     86 H86        25.8445    1.5082   -2.3521 H         1 UNK         0.0934 
     87 H87        27.2107    2.5030   -1.9315 H         1 UNK         0.0934 
     88 H88        28.4512    1.7992   -3.9290 H         1 UNK         0.0739 
     89 H89        26.6304   -0.4010   -4.0638 H         1 UNK         0.3093 
     90 H90        27.3474   -1.3551   -7.4139 H         1 UNK         0.0818 
     91 H91        28.5710   -2.5155   -4.8693 H         1 UNK         0.0819 
     92 H92        28.2374   -3.4461   -6.3318 H         1 UNK         0.0819 
     93 H93        29.4288   -2.1519   -6.3556 H         1 UNK         0.0819 
     94 H94        26.0413   -2.7260   -5.2794 H         1 UNK         0.3041 
     95 H95        22.9514   -1.0214   -5.4152 H         1 UNK         0.0784 
     96 H96        22.7342   -2.2888   -7.5646 H         1 UNK         0.0793 
     97 H97        23.4919   -3.6922   -6.8243 H         1 UNK         0.0793 
     98 H98        21.9257   -3.1193   -6.2469 H         1 UNK         0.0793 
     99 H99        23.4745   -3.5454   -4.3141 H         1 UNK         0.3024 
    100 H100       23.9964   -2.4073   -1.1568 H         1 UNK         0.1171 
    101 H101       23.5217   -4.8243   -1.1700 H         1 UNK         0.0786 
    102 H102       22.4874   -4.0310   -2.3389 H         1 UNK         0.0786 
    103 H103       23.8954   -4.9482   -2.8816 H         1 UNK         0.0786 
    104 H104       25.9844   -3.3096   -0.6407 H         1 UNK         0.2977 
    105 H105       25.1517    1.4087   -5.1464 H         1 UNK         0.3127 
    106 H106       24.6977    4.2607   -5.6030 H         1 UNK         0.0770 
    107 H107       23.1111    1.7889   -6.4913 H         1 UNK         0.0814 
    108 H108       22.5864    3.4587   -6.6479 H         1 UNK         0.0814 
    109 H109       22.7958    2.7573   -5.0518 H         1 UNK         0.0814 
    110 H110       25.4964    1.3567   -7.5625 H         1 UNK         0.2983 
    111 H111       25.4998    2.6629  -10.0873 H         1 UNK         0.0947 
    112 H112       26.6319    0.5858  -10.8673 H         1 UNK         0.0806 
    113 H113       25.2880    0.1959   -9.8051 H         1 UNK         0.0806 
    114 H114       26.9414    0.1048   -9.2050 H         1 UNK         0.0806 
    115 H115       28.1331    2.0489   -7.7670 H         1 UNK         0.3000 
    116 H116       30.1239    2.8241   -7.4060 H         1 UNK         0.0850 
    117 H117       30.8846    5.0297   -8.2316 H         1 UNK         0.0810 
    118 H118       29.2222    5.1185   -7.6704 H         1 UNK         0.0810 
    119 H119       29.5728    5.0884   -9.3975 H         1 UNK         0.0810 
    120 H120       29.5539    2.9548  -10.9221 H         1 UNK         0.3040 
    121 H121       32.2212    2.3426  -11.7558 H         1 UNK         0.0766 
    122 H122       31.1237    1.9546  -13.9755 H         1 UNK         0.0812 
    123 H123       30.5467    3.4365  -13.2322 H         1 UNK         0.0812 
    124 H124       29.5407    1.9882  -13.2096 H         1 UNK         0.0812 
    125 H125       29.8164    0.3015  -10.4115 H         1 UNK         0.3205 
    126 H126       30.6172   -2.2338  -11.5294 H         1 UNK         0.0754 
    127 H127       29.1362   -1.5327   -8.9363 H         1 UNK         0.0769 
    128 H128       29.2460   -3.1407   -9.6378 H         1 UNK         0.0769 
    129 H129       28.3778   -1.8762  -10.4930 H         1 UNK         0.0769 
    130 H130       31.9248   -0.1779   -8.9684 H         1 UNK         0.2981 
    131 H131       33.3926   -2.2902   -7.6186 H         1 UNK         0.0541 
    132 H132       35.6516   -2.7368   -7.7636 H         1 UNK         0.3459 
    133 H133       36.6290   -2.1041   -9.0619 H         1 UNK         0.3459 
    134 H134       33.5193    0.7592   -7.3657 H         1 UNK         0.0612 
    135 H135       34.4534   -0.3411   -6.3923 H         1 UNK         0.0612 
    136 H136       33.5792    0.1661   -3.9907 H         1 UNK         0.0624 
    137 H137       33.6998   -1.5350   -4.3849 H         1 UNK         0.0624 
@<TRIPOS>BOND
     1    1    2 1    
     2    1   72 1    
     3    1   73 1    
     4    1   74 1    
     5    2    3 2    
     6    2    4 am   BACKBONE|DICT|INTERRES
     7    4    5 1    
     8    4   75 1    
     9    5    6 1    
    10    5   35 1    
    11    5   76 1    
    12    6    7 1    
    13    6   77 1    
    14    6   78 1    
    15    7    8 1    
    16    8    9 1    
    17    8   79 1    
    18    8   80 1    
    19    9   10 ar   
    20    9   14 ar   
    21   10   11 ar   
    22   10   81 1    
    23   11   12 ar   
    24   11   71 1    
    25   12   13 ar   
    26   12   82 1    
    27   13   14 ar   
    28   13   15 1    
    29   14   83 1    
    30   15   16 1    
    31   15   84 1    
    32   15   85 1    
    33   16   17 1    
    34   17   18 1    
    35   17   86 1    
    36   17   87 1    
    37   18   19 1    
    38   18   37 1    
    39   18   88 1    
    40   19   20 am   BACKBONE|DICT|INTERRES
    41   19   89 1    
    42   20   21 2    
    43   20   22 1    
    44   22   23 1    
    45   22   24 1    
    46   22   90 1    
    47   23   91 1    
    48   23   92 1    
    49   23   93 1    
    50   24   25 am   BACKBONE|DICT|INTERRES
    51   24   94 1    
    52   25   26 2    
    53   25   27 1    
    54   27   28 1    
    55   27   29 1    
    56   27   95 1    
    57   28   96 1    
    58   28   97 1    
    59   28   98 1    
    60   29   30 am   BACKBONE|DICT|INTERRES
    61   29   99 1    
    62   30   31 2    
    63   30   32 1    
    64   32   33 1    
    65   32   34 1    
    66   32  100 1    
    67   33  101 1    
    68   33  102 1    
    69   33  103 1    
    70   34   35 am   BACKBONE|DICT|INTERRES
    71   34  104 1    
    72   35   36 2    
    73   37   38 2    
    74   37   39 am   BACKBONE|DICT|INTERRES
    75   39   40 1    
    76   39  105 1    
    77   40   41 1    
    78   40   42 1    
    79   40  106 1    
    80   41  107 1    
    81   41  108 1    
    82   41  109 1    
    83   42   43 2    
    84   42   44 am   BACKBONE|DICT|INTERRES
    85   44   45 1    
    86   44  110 1    
    87   45   46 1    
    88   45   47 1    
    89   45  111 1    
    90   46  112 1    
    91   46  113 1    
    92   46  114 1    
    93   47   48 2    
    94   47   49 am   BACKBONE|DICT|INTERRES
    95   49   50 1    
    96   49  115 1    
    97   50   51 1    
    98   50   52 1    
    99   50  116 1    
   100   51  117 1    
   101   51  118 1    
   102   51  119 1    
   103   52   53 2    
   104   52   54 am   BACKBONE|DICT|INTERRES
   105   54   55 1    
   106   54  120 1    
   107   55   56 1    
   108   55   57 1    
   109   55  121 1    
   110   56  122 1    
   111   56  123 1    
   112   56  124 1    
   113   57   58 2    
   114   57   59 am   BACKBONE|DICT|INTERRES
   115   59   60 1    
   116   59  125 1    
   117   60   61 1    
   118   60   62 1    
   119   60  126 1    
   120   61  127 1    
   121   61  128 1    
   122   61  129 1    
   123   62   63 2    
   124   62   64 am   BACKBONE|DICT|INTERRES
   125   64   65 1    
   126   64  130 1    
   127   65   66 1    
   128   65   69 1    
   129   65  131 1    
   130   66   67 am   BACKBONE|DICT|INTERRES
   131   66   68 2    
   132   67  132 1    
   133   67  133 1    
   134   69   70 1    
   135   69  134 1    
   136   69  135 1    
   137   70   71 1    
   138   71  136 1    
   139   71  137 1    
@<TRIPOS>SUBSTRUCTURE
     1 UNK         1 GROUP             0       ****    0 ROOT    
