@<TRIPOS>MOLECULE
3R137
137   139    1
SMALL
USER_CHARGES


@<TRIPOS>ATOM
      1 CA         26.6735   -5.5471    0.2810 C.3       0 UNK        -0.2020 
      2 C          26.8867   -5.0555   -1.1468 C.2       0 UNK         0.4855 
      3 O          26.6832   -5.8222   -2.0847 O.2       0 UNK        -0.5197 
      4 N          27.2878   -3.7981   -1.3729 N.am      1 UNK        -0.4892 
      5 CA         27.5247   -2.7370   -0.3810 C.3       1 UNK         0.0835 
      6 C6         29.0159   -2.3165   -0.3078 C.3       12 UNK        -0.0855 
      7 S7         30.1022   -3.7066    0.1583 S.3       12 UNK        -0.2931 
      8 C8         31.5542   -3.4179   -0.9092 C.3       12 UNK         0.0378 
      9 C9         31.2872   -3.5042   -2.4125 C.ar      12 UNK        -0.0802 
     10 C10        32.0560   -2.7215   -3.2769 C.ar      12 UNK        -0.0944 
     11 C11        31.8869   -2.8020   -4.6615 C.ar      12 UNK        -0.0787 
     12 C12        30.9255   -3.6721   -5.1864 C.ar      12 UNK        -0.0862 
     13 C13        30.1503   -4.4733   -4.3373 C.ar      12 UNK        -0.0733 
     14 C14        30.3426   -4.3847   -2.9541 C.ar      12 UNK        -0.0832 
     15 C15        29.1739   -5.5141   -4.8849 C.3       12 UNK         0.0240 
     16 S16        28.2501   -5.0006   -6.3708 S.3       12 UNK        -0.2522 
     17 C17        27.0040   -3.8651   -5.6757 C.3       12 UNK        -0.0967 
     18 CA         26.6378   -2.7448   -6.6822 C.3       5 UNK         0.0660 
     19 N          25.3360   -2.1471   -6.3969 N.am      5 UNK        -0.4015 
     20 C          24.3354   -2.0373   -7.2828 C.2       4 UNK         0.4946 
     21 O          24.3276   -2.5892   -8.3837 O.2       4 UNK        -0.5353 
     22 CA         23.1352   -1.1463   -6.9006 C.3       4 UNK         0.0277 
     23 CB         21.9534   -2.0121   -6.4337 C.3       4 UNK        -0.1981 
     24 N          23.4235   -0.1392   -5.8747 N.am      4 UNK        -0.4209 
     25 C          24.3709    0.8072   -5.9499 C.2       3 UNK         0.4942 
     26 O          25.0919    0.9806   -6.9314 O.2       3 UNK        -0.5208 
     27 CA         24.6243    1.6390   -4.6796 C.3       3 UNK         0.0250 
     28 CB         23.7875    2.9273   -4.7064 C.3       3 UNK        -0.1990 
     29 N          24.3706    0.9153   -3.4263 N.am      3 UNK        -0.4232 
     30 C          24.9265   -0.2528   -3.0724 C.2       2 UNK         0.4993 
     31 O          25.7146   -0.8856   -3.7849 O.2       2 UNK        -0.5286 
     32 CA         24.4572   -0.8468   -1.7362 C.3       2 UNK         0.0209 
     33 CB         23.0908   -1.5314   -1.9108 C.3       2 UNK        -0.1931 
     34 N          25.4130   -1.8339   -1.2385 N.am      2 UNK        -0.4546 
     35 C          26.5961   -1.5419   -0.6816 C.2       1 UNK         0.5154 
     36 O          26.9548   -0.3923   -0.4196 O.2       1 UNK        -0.5181 
     37 C          27.7076   -1.6406   -6.7273 C.2       5 UNK         0.5014 
     38 O          28.4106   -1.5242   -7.7303 O.2       5 UNK        -0.5248 
     39 N          27.8176   -0.8502   -5.6497 N.am      6 UNK        -0.4434 
     40 CA         28.9285    0.0743   -5.4210 C.3       6 UNK         0.0363 
     41 CB         28.8773    0.5960   -3.9767 C.3       6 UNK        -0.1936 
     42 C          29.0097    1.2335   -6.4262 C.2       6 UNK         0.5081 
     43 O          30.0897    1.5032   -6.9523 O.2       6 UNK        -0.5248 
     44 N          27.8728    1.8874   -6.6987 N.am      7 UNK        -0.4718 
     45 CA         27.7848    2.9956   -7.6546 C.3       7 UNK         0.0273 
     46 CB         26.6004    3.9100   -7.3022 C.3       7 UNK        -0.1935 
     47 C          27.6821    2.4936   -9.1024 C.2       7 UNK         0.5018 
     48 O          28.1273    3.1966  -10.0086 O.2       7 UNK        -0.5186 
     49 N          27.1393    1.2814   -9.2927 N.am      8 UNK        -0.4240 
     50 CA         27.1160    0.5710  -10.5739 C.3       8 UNK         0.0235 
     51 CB         26.2052   -0.6620  -10.4715 C.3       8 UNK        -0.2000 
     52 C          28.5288    0.1828  -11.0449 C.2       8 UNK         0.4941 
     53 O          28.8604    0.4069  -12.2095 O.2       8 UNK        -0.5273 
     54 N          29.3469   -0.3490  -10.1244 N.am      9 UNK        -0.4262 
     55 CA         30.7771   -0.6002  -10.3257 C.3       9 UNK         0.0264 
     56 CB         31.2874   -1.5240   -9.2079 C.3       9 UNK        -0.1955 
     57 C          31.6125    0.6928  -10.3580 C.2       9 UNK         0.5031 
     58 O          32.6778    0.7024  -10.9763 O.2       9 UNK        -0.5390 
     59 N          31.1195    1.7394   -9.6791 N.am      10 UNK        -0.4204 
     60 CA         31.7386    3.0493   -9.4524 C.3       10 UNK         0.0237 
     61 CB         31.9192    3.8208  -10.7771 C.3       10 UNK        -0.1985 
     62 C          33.0298    2.9429   -8.6197 C.2       10 UNK         0.4970 
     63 O          34.0043    3.6445   -8.8997 O.2       10 UNK        -0.4914 
     64 N          33.0141    2.0529   -7.6200 N.am      11 UNK        -0.4285 
     65 CA         34.1288    1.8156   -6.6962 C.3       11 UNK         0.1007 
     66 C          34.1797    2.8428   -5.5296 C.2       11 UNK         0.5703 
     67 N          35.2788    2.8797   -4.7875 N.am      11 UNK        -0.7361 
     68 O          33.2436    3.6025   -5.2838 O.2       11 UNK        -0.4986 
     69 C69        34.1684    0.3385   -6.2221 C.3       12 UNK        -0.0947 
     70 S70        32.6872   -0.2144   -5.3134 S.3       12 UNK        -0.2240 
     71 C71        32.8051   -2.0101   -5.5826 C.3       12 UNK         0.0194 
     72 H72        27.5727   -5.4058    0.8800 H         1 UNK         0.0906 
     73 H73        25.8449   -5.0198    0.7528 H         1 UNK         0.0906 
     74 H74        26.4377   -6.6111    0.2872 H         1 UNK         0.0906 
     75 H75        27.4174   -3.5051   -2.3305 H         1 UNK         0.3140 
     76 H76        27.2330   -3.0636    0.6174 H         1 UNK         0.1085 
     77 H77        29.3367   -1.8971   -1.2630 H         1 UNK         0.0836 
     78 H78        29.1605   -1.5283    0.4337 H         1 UNK         0.0836 
     79 H79        32.3198   -4.1520   -0.6553 H         1 UNK         0.0731 
     80 H80        31.9696   -2.4408   -0.6568 H         1 UNK         0.0731 
     81 H81        32.8112   -2.0599   -2.8742 H         1 UNK         0.1312 
     82 H82        30.8085   -3.7539   -6.2584 H         1 UNK         0.1406 
     83 H83        29.7712   -5.0250   -2.2963 H         1 UNK         0.1631 
     84 H84        28.4570   -5.8127   -4.1191 H         1 UNK         0.0717 
     85 H85        29.7438   -6.4102   -5.1331 H         1 UNK         0.0717 
     86 H86        26.1211   -4.4636   -5.4451 H         1 UNK         0.0934 
     87 H87        27.3461   -3.4592   -4.7218 H         1 UNK         0.0934 
     88 H88        26.6117   -3.1914   -7.6788 H         1 UNK         0.0739 
     89 H89        25.2579   -1.6581   -5.5105 H         1 UNK         0.3093 
     90 H90        22.8357   -0.6110   -7.8040 H         1 UNK         0.0818 
     91 H91        21.0626   -1.4087   -6.2576 H         1 UNK         0.0819 
     92 H92        21.6926   -2.7562   -7.1878 H         1 UNK         0.0819 
     93 H93        22.1851   -2.5492   -5.5130 H         1 UNK         0.0819 
     94 H94        22.8876   -0.2006   -5.0218 H         1 UNK         0.3041 
     95 H95        25.6788    1.9199   -4.6799 H         1 UNK         0.0784 
     96 H96        23.9628    3.4912   -5.6235 H         1 UNK         0.0793 
     97 H97        22.7185    2.7168   -4.6545 H         1 UNK         0.0793 
     98 H98        24.0419    3.5835   -3.8738 H         1 UNK         0.0793 
     99 H99        23.7226    1.3525   -2.7861 H         1 UNK         0.3024 
    100 H100       24.3681   -0.0411   -1.0036 H         1 UNK         0.1171 
    101 H101       22.3298   -0.8205   -2.2351 H         1 UNK         0.0786 
    102 H102       23.1295   -2.3296   -2.6538 H         1 UNK         0.0786 
    103 H103       22.7429   -1.9649   -0.9729 H         1 UNK         0.0786 
    104 H104       25.2214   -2.8005   -1.4580 H         1 UNK         0.2977 
    105 H105       27.1535   -0.9551   -4.8848 H         1 UNK         0.3127 
    106 H106       29.8437   -0.5090   -5.5306 H         1 UNK         0.0770 
    107 H107       27.9582    1.1466   -3.7749 H         1 UNK         0.0814 
    108 H108       29.7143    1.2664   -3.7763 H         1 UNK         0.0814 
    109 H109       28.9412   -0.2223   -3.2591 H         1 UNK         0.0814 
    110 H110       26.9986    1.5428   -6.3223 H         1 UNK         0.2983 
    111 H111       28.6958    3.5939   -7.5773 H         1 UNK         0.0947 
    112 H112       26.6191    4.8133   -7.9134 H         1 UNK         0.0806 
    113 H113       26.6336    4.2244   -6.2591 H         1 UNK         0.0806 
    114 H114       25.6409    3.4262   -7.4807 H         1 UNK         0.0806 
    115 H115       26.7474    0.8062   -8.4893 H         1 UNK         0.3000 
    116 H116       26.6905    1.2457  -11.3200 H         1 UNK         0.0850 
    117 H117       26.1388   -1.1778  -11.4302 H         1 UNK         0.0810 
    118 H118       25.1915   -0.3840  -10.1821 H         1 UNK         0.0810 
    119 H119       26.5736   -1.3822   -9.7407 H         1 UNK         0.0810 
    120 H120       28.9698   -0.5951   -9.2095 H         1 UNK         0.3040 
    121 H121       30.9077   -1.1085  -11.2833 H         1 UNK         0.0766 
    122 H122       31.1618   -1.0667   -8.2252 H         1 UNK         0.0812 
    123 H123       32.3481   -1.7454   -9.3338 H         1 UNK         0.0812 
    124 H124       30.7538   -2.4747   -9.2029 H         1 UNK         0.0812 
    125 H125       30.2790    1.5741   -9.1399 H         1 UNK         0.3205 
    126 H126       31.0330    3.6125   -8.8402 H         1 UNK         0.0754 
    127 H127       32.2511    4.8429  -10.5913 H         1 UNK         0.0769 
    128 H128       30.9806    3.8804  -11.3285 H         1 UNK         0.0769 
    129 H129       32.6605    3.3511  -11.4242 H         1 UNK         0.0769 
    130 H130       32.1391    1.5947   -7.3886 H         1 UNK         0.2981 
    131 H131       35.0500    1.9751   -7.2601 H         1 UNK         0.0541 
    132 H132       36.0559    2.2652   -4.9734 H         1 UNK         0.3459 
    133 H133       35.3314    3.5365   -4.0248 H         1 UNK         0.3459 
    134 H134       35.0424    0.1583   -5.5943 H         1 UNK         0.0612 
    135 H135       34.2959   -0.3059   -7.0936 H         1 UNK         0.0612 
    136 H136       33.8324   -2.3311   -5.4038 H         1 UNK         0.0624 
    137 H137       32.5909   -2.2284   -6.6290 H         1 UNK         0.0624 
@<TRIPOS>BOND
     1    1    2 1    
     2    1   72 1    
     3    1   73 1    
     4    1   74 1    
     5    2    3 2    
     6    2    4 am   BACKBONE|DICT|INTERRES
     7    4    5 1    
     8    4   75 1    
     9    5    6 1    
    10    5   35 1    
    11    5   76 1    
    12    6    7 1    
    13    6   77 1    
    14    6   78 1    
    15    7    8 1    
    16    8    9 1    
    17    8   79 1    
    18    8   80 1    
    19    9   10 ar   
    20    9   14 ar   
    21   10   11 ar   
    22   10   81 1    
    23   11   12 ar   
    24   11   71 1    
    25   12   13 ar   
    26   12   82 1    
    27   13   14 ar   
    28   13   15 1    
    29   14   83 1    
    30   15   16 1    
    31   15   84 1    
    32   15   85 1    
    33   16   17 1    
    34   17   18 1    
    35   17   86 1    
    36   17   87 1    
    37   18   19 1    
    38   18   37 1    
    39   18   88 1    
    40   19   20 am   BACKBONE|DICT|INTERRES
    41   19   89 1    
    42   20   21 2    
    43   20   22 1    
    44   22   23 1    
    45   22   24 1    
    46   22   90 1    
    47   23   91 1    
    48   23   92 1    
    49   23   93 1    
    50   24   25 am   BACKBONE|DICT|INTERRES
    51   24   94 1    
    52   25   26 2    
    53   25   27 1    
    54   27   28 1    
    55   27   29 1    
    56   27   95 1    
    57   28   96 1    
    58   28   97 1    
    59   28   98 1    
    60   29   30 am   BACKBONE|DICT|INTERRES
    61   29   99 1    
    62   30   31 2    
    63   30   32 1    
    64   32   33 1    
    65   32   34 1    
    66   32  100 1    
    67   33  101 1    
    68   33  102 1    
    69   33  103 1    
    70   34   35 am   BACKBONE|DICT|INTERRES
    71   34  104 1    
    72   35   36 2    
    73   37   38 2    
    74   37   39 am   BACKBONE|DICT|INTERRES
    75   39   40 1    
    76   39  105 1    
    77   40   41 1    
    78   40   42 1    
    79   40  106 1    
    80   41  107 1    
    81   41  108 1    
    82   41  109 1    
    83   42   43 2    
    84   42   44 am   BACKBONE|DICT|INTERRES
    85   44   45 1    
    86   44  110 1    
    87   45   46 1    
    88   45   47 1    
    89   45  111 1    
    90   46  112 1    
    91   46  113 1    
    92   46  114 1    
    93   47   48 2    
    94   47   49 am   BACKBONE|DICT|INTERRES
    95   49   50 1    
    96   49  115 1    
    97   50   51 1    
    98   50   52 1    
    99   50  116 1    
   100   51  117 1    
   101   51  118 1    
   102   51  119 1    
   103   52   53 2    
   104   52   54 am   BACKBONE|DICT|INTERRES
   105   54   55 1    
   106   54  120 1    
   107   55   56 1    
   108   55   57 1    
   109   55  121 1    
   110   56  122 1    
   111   56  123 1    
   112   56  124 1    
   113   57   58 2    
   114   57   59 am   BACKBONE|DICT|INTERRES
   115   59   60 1    
   116   59  125 1    
   117   60   61 1    
   118   60   62 1    
   119   60  126 1    
   120   61  127 1    
   121   61  128 1    
   122   61  129 1    
   123   62   63 2    
   124   62   64 am   BACKBONE|DICT|INTERRES
   125   64   65 1    
   126   64  130 1    
   127   65   66 1    
   128   65   69 1    
   129   65  131 1    
   130   66   67 am   BACKBONE|DICT|INTERRES
   131   66   68 2    
   132   67  132 1    
   133   67  133 1    
   134   69   70 1    
   135   69  134 1    
   136   69  135 1    
   137   70   71 1    
   138   71  136 1    
   139   71  137 1    
@<TRIPOS>SUBSTRUCTURE
     1 UNK         1 GROUP             0       ****    0 ROOT    
