@<TRIPOS>MOLECULE
3R137
137   139    1
SMALL
USER_CHARGES


@<TRIPOS>ATOM
      1 CA         23.4547   -4.5722   -2.8733 C.3       0 UNK        -0.2020 
      2 C          24.2777   -3.4352   -2.2882 C.2       0 UNK         0.4855 
      3 O          23.7096   -2.4997   -1.7243 O.2       0 UNK        -0.5197 
      4 N          25.6093   -3.5046   -2.4221 N.am      1 UNK        -0.4892 
      5 CA         26.5823   -2.5153   -1.9404 C.3       1 UNK         0.0835 
      6 C6         28.0363   -2.9401   -2.2558 C.3       12 UNK        -0.0855 
      7 S7         28.4671   -4.5697   -1.5620 S.3       12 UNK        -0.2931 
      8 C8         30.2013   -4.2983   -1.0660 C.3       12 UNK         0.0378 
      9 C9         31.0939   -3.8437   -2.2179 C.ar      12 UNK        -0.0802 
     10 C10        31.9288   -2.7325   -2.0573 C.ar      12 UNK        -0.0944 
     11 C11        32.7851   -2.3277   -3.0866 C.ar      12 UNK        -0.0787 
     12 C12        32.7986   -3.0471   -4.2847 C.ar      12 UNK        -0.0862 
     13 C13        31.9253   -4.1180   -4.4842 C.ar      12 UNK        -0.0733 
     14 C14        31.0974   -4.5316   -3.4365 C.ar      12 UNK        -0.0832 
     15 C15        31.8623   -4.8086   -5.8401 C.3       12 UNK         0.0240 
     16 S16        31.0654   -3.7601   -7.1069 S.3       12 UNK        -0.2522 
     17 C17        29.3678   -3.5906   -6.4494 C.3       12 UNK        -0.0967 
     18 CA         28.5780   -2.3755   -7.0049 C.3       5 UNK         0.0660 
     19 N          27.1493   -2.5118   -6.6862 N.am      5 UNK        -0.4015 
     20 C          26.1666   -1.6076   -6.8103 C.2       4 UNK         0.4946 
     21 O          26.3441   -0.4258   -7.1063 O.2       4 UNK        -0.5353 
     22 CA         24.7313   -2.0990   -6.5737 C.3       4 UNK         0.0277 
     23 CB         24.6062   -3.6060   -6.2575 C.3       4 UNK        -0.1981 
     24 N          24.1276   -1.3135   -5.5010 N.am      4 UNK        -0.4209 
     25 C          22.8291   -0.9866   -5.4276 C.2       3 UNK         0.4942 
     26 O          22.0067   -1.2987   -6.2905 O.2       3 UNK        -0.5208 
     27 CA         22.3366   -0.2074   -4.1908 C.3       3 UNK         0.0250 
     28 CB         21.1780   -0.9483   -3.4992 C.3       3 UNK        -0.1990 
     29 N          23.3998    0.0234   -3.2109 N.am      3 UNK        -0.4232 
     30 C          24.1553    1.1288   -3.1539 C.2       2 UNK         0.4993 
     31 O          23.9557    2.1234   -3.8494 O.2       2 UNK        -0.5286 
     32 CA         25.3439    1.1347   -2.1725 C.3       2 UNK         0.0209 
     33 CB         25.0170    1.9835   -0.9333 C.3       2 UNK        -0.1931 
     34 N          25.7729   -0.2008   -1.7402 N.am      2 UNK        -0.4546 
     35 C          26.3004   -1.1295   -2.5484 C.2       1 UNK         0.5154 
     36 O          26.5244   -0.9433   -3.7461 O.2       1 UNK        -0.5181 
     37 C          29.2296   -1.0363   -6.5925 C.2       5 UNK         0.5014 
     38 O          29.9549   -0.4515   -7.4000 O.2       5 UNK        -0.5248 
     39 N          28.9519   -0.5467   -5.3765 N.am      6 UNK        -0.4434 
     40 CA         29.5717    0.6726   -4.8495 C.3       6 UNK         0.0363 
     41 CB         29.4744    0.6917   -3.3164 C.3       6 UNK        -0.1936 
     42 C          29.0199    1.9722   -5.4624 C.2       6 UNK         0.5081 
     43 O          29.6583    3.0127   -5.3045 O.2       6 UNK        -0.5248 
     44 N          27.8727    1.9039   -6.1507 N.am      7 UNK        -0.4718 
     45 CA         27.2507    3.0354   -6.8394 C.3       7 UNK         0.0273 
     46 CB         25.8139    3.2162   -6.3274 C.3       7 UNK        -0.1935 
     47 C          27.2583    2.8404   -8.3605 C.2       7 UNK         0.5018 
     48 O          27.6283    3.7660   -9.0823 O.2       7 UNK        -0.5186 
     49 N          26.8474    1.6522   -8.8242 N.am      8 UNK        -0.4240 
     50 CA         26.6820    1.3226  -10.2411 C.3       8 UNK         0.0235 
     51 CB         25.8205    0.0560  -10.3785 C.3       8 UNK        -0.2000 
     52 C          28.0187    1.1498  -10.9743 C.2       8 UNK         0.4941 
     53 O          28.1666    1.6614  -12.0847 O.2       8 UNK        -0.5273 
     54 N          28.9622    0.4403  -10.3412 N.am      9 UNK        -0.4262 
     55 CA         30.3062    0.1974  -10.8722 C.3       9 UNK         0.0264 
     56 CB         30.6627   -1.2875  -10.6735 C.3       9 UNK        -0.1955 
     57 C          31.3644    1.0982  -10.2145 C.2       9 UNK         0.5031 
     58 O          32.5217    1.0488  -10.6323 O.2       9 UNK        -0.5390 
     59 N          30.9785    1.8634   -9.1799 N.am      10 UNK        -0.4204 
     60 CA         31.8395    2.6755   -8.3077 C.3       10 UNK         0.0237 
     61 CB         32.3745    3.9076   -9.0677 C.3       10 UNK        -0.1985 
     62 C          32.9556    1.8398   -7.6444 C.2       10 UNK         0.4970 
     63 O          34.1021    2.2858   -7.5751 O.2       10 UNK        -0.4914 
     64 N          32.5923    0.6222   -7.2204 N.am      11 UNK        -0.4285 
     65 CA         33.4706   -0.4562   -6.7438 C.3       11 UNK         0.1007 
     66 C          34.3475   -1.1281   -7.8452 C.2       11 UNK         0.5703 
     67 N          34.2254   -0.7876   -9.1226 N.am      11 UNK        -0.7361 
     68 O          35.1391   -2.0167   -7.5394 O.2       11 UNK        -0.4986 
     69 C69        34.3004   -0.0939   -5.4740 C.3       12 UNK        -0.0947 
     70 S70        33.2799    0.2637   -4.0031 S.3       12 UNK        -0.2240 
     71 C71        33.7007   -1.1245   -2.8935 C.3       12 UNK         0.0194 
     72 H72        22.8505   -5.0359   -2.0940 H         1 UNK         0.0906 
     73 H73        24.0815   -5.3435   -3.3202 H         1 UNK         0.0906 
     74 H74        22.7836   -4.1909   -3.6424 H         1 UNK         0.0906 
     75 H75        26.0189   -4.3123   -2.8691 H         1 UNK         0.3140 
     76 H76        26.4744   -2.4497   -0.8557 H         1 UNK         0.1085 
     77 H77        28.2076   -2.9823   -3.3326 H         1 UNK         0.0836 
     78 H78        28.7331   -2.1954   -1.8659 H         1 UNK         0.0836 
     79 H79        30.2200   -3.5732   -0.2508 H         1 UNK         0.0731 
     80 H80        30.6004   -5.2283   -0.6592 H         1 UNK         0.0731 
     81 H81        31.9226   -2.1888   -1.1224 H         1 UNK         0.1312 
     82 H82        33.4729   -2.7627   -5.0773 H         1 UNK         0.1406 
     83 H83        30.4374   -5.3774   -3.5743 H         1 UNK         0.1631 
     84 H84        32.8740   -5.0511   -6.1685 H         1 UNK         0.0717 
     85 H85        31.3266   -5.7565   -5.7705 H         1 UNK         0.0717 
     86 H86        28.8466   -4.5182   -6.6913 H         1 UNK         0.0934 
     87 H87        29.3968   -3.5421   -5.3613 H         1 UNK         0.0934 
     88 H88        28.6325   -2.4177   -8.0945 H         1 UNK         0.0739 
     89 H89        26.8628   -3.4410   -6.4180 H         1 UNK         0.3093 
     90 H90        24.1978   -1.9017   -7.5060 H         1 UNK         0.0818 
     91 H91        23.5611   -3.8929   -6.1394 H         1 UNK         0.0819 
     92 H92        25.0064   -4.2183   -7.0668 H         1 UNK         0.0819 
     93 H93        25.1252   -3.8759   -5.3378 H         1 UNK         0.0819 
     94 H94        24.7757   -0.9732   -4.7974 H         1 UNK         0.3041 
     95 H95        21.9514    0.7490   -4.5505 H         1 UNK         0.0784 
     96 H96        20.3297   -1.0682   -4.1744 H         1 UNK         0.0793 
     97 H97        21.4732   -1.9443   -3.1687 H         1 UNK         0.0793 
     98 H98        20.8202   -0.3990   -2.6282 H         1 UNK         0.0793 
     99 H99        23.6125   -0.7540   -2.5900 H         1 UNK         0.3024 
    100 H100       26.1786    1.6030   -2.6988 H         1 UNK         0.1171 
    101 H101       25.8810    2.0746   -0.2746 H         1 UNK         0.0786 
    102 H102       24.7226    2.9946   -1.2188 H         1 UNK         0.0786 
    103 H103       24.1960    1.5558   -0.3564 H         1 UNK         0.0786 
    104 H104       25.5770   -0.4464   -0.7799 H         1 UNK         0.2977 
    105 H105       28.2311   -0.9804   -4.8084 H         1 UNK         0.3127 
    106 H106       30.6316    0.6391   -5.1039 H         1 UNK         0.0770 
    107 H107       30.0402    1.5289   -2.9058 H         1 UNK         0.0814 
    108 H108       28.4467    0.8010   -2.9761 H         1 UNK         0.0814 
    109 H109       29.8885   -0.2180   -2.8815 H         1 UNK         0.0814 
    110 H110       27.4193    1.0006   -6.2568 H         1 UNK         0.2983 
    111 H111       27.7943    3.9600   -6.6323 H         1 UNK         0.0947 
    112 H112       25.3019    4.0171   -6.8624 H         1 UNK         0.0806 
    113 H113       25.8086    3.4804   -5.2701 H         1 UNK         0.0806 
    114 H114       25.2205    2.3084   -6.4469 H         1 UNK         0.0806 
    115 H115       26.5786    0.9285   -8.1564 H         1 UNK         0.3000 
    116 H116       26.1468    2.1473  -10.7172 H         1 UNK         0.0850 
    117 H117       24.8477    0.1851   -9.9035 H         1 UNK         0.0810 
    118 H118       26.2998   -0.8130   -9.9263 H         1 UNK         0.0810 
    119 H119       25.6401   -0.1806  -11.4280 H         1 UNK         0.0810 
    120 H120       28.7619    0.0576   -9.4264 H         1 UNK         0.3040 
    121 H121       30.3336    0.4046  -11.9439 H         1 UNK         0.0766 
    122 H122       29.9246   -1.9391  -11.1409 H         1 UNK         0.0812 
    123 H123       30.7291   -1.5575   -9.6197 H         1 UNK         0.0812 
    124 H124       31.6284   -1.5198  -11.1245 H         1 UNK         0.0812 
    125 H125       30.0077    1.8105   -8.9089 H         1 UNK         0.3205 
    126 H126       31.2071    3.0386   -7.4974 H         1 UNK         0.0754 
    127 H127       33.0555    3.6240   -9.8708 H         1 UNK         0.0769 
    128 H128       32.9197    4.5737   -8.3979 H         1 UNK         0.0769 
    129 H129       31.5608    4.4854   -9.5061 H         1 UNK         0.0769 
    130 H130       31.6234    0.3384   -7.3508 H         1 UNK         0.2981 
    131 H131       32.7648   -1.2360   -6.4650 H         1 UNK         0.0541 
    132 H132       34.8007   -1.2563   -9.8033 H         1 UNK         0.3459 
    133 H133       33.5902   -0.0580   -9.4279 H         1 UNK         0.3459 
    134 H134       34.9389    0.7691   -5.6625 H         1 UNK         0.0612 
    135 H135       34.9883   -0.9012   -5.2212 H         1 UNK         0.0612 
    136 H136       33.6286   -0.7607   -1.8675 H         1 UNK         0.0624 
    137 H137       34.7405   -1.4241   -3.0283 H         1 UNK         0.0624 
@<TRIPOS>BOND
     1    1    2 1    
     2    1   72 1    
     3    1   73 1    
     4    1   74 1    
     5    2    3 2    
     6    2    4 am   BACKBONE|DICT|INTERRES
     7    4    5 1    
     8    4   75 1    
     9    5    6 1    
    10    5   35 1    
    11    5   76 1    
    12    6    7 1    
    13    6   77 1    
    14    6   78 1    
    15    7    8 1    
    16    8    9 1    
    17    8   79 1    
    18    8   80 1    
    19    9   10 ar   
    20    9   14 ar   
    21   10   11 ar   
    22   10   81 1    
    23   11   12 ar   
    24   11   71 1    
    25   12   13 ar   
    26   12   82 1    
    27   13   14 ar   
    28   13   15 1    
    29   14   83 1    
    30   15   16 1    
    31   15   84 1    
    32   15   85 1    
    33   16   17 1    
    34   17   18 1    
    35   17   86 1    
    36   17   87 1    
    37   18   19 1    
    38   18   37 1    
    39   18   88 1    
    40   19   20 am   BACKBONE|DICT|INTERRES
    41   19   89 1    
    42   20   21 2    
    43   20   22 1    
    44   22   23 1    
    45   22   24 1    
    46   22   90 1    
    47   23   91 1    
    48   23   92 1    
    49   23   93 1    
    50   24   25 am   BACKBONE|DICT|INTERRES
    51   24   94 1    
    52   25   26 2    
    53   25   27 1    
    54   27   28 1    
    55   27   29 1    
    56   27   95 1    
    57   28   96 1    
    58   28   97 1    
    59   28   98 1    
    60   29   30 am   BACKBONE|DICT|INTERRES
    61   29   99 1    
    62   30   31 2    
    63   30   32 1    
    64   32   33 1    
    65   32   34 1    
    66   32  100 1    
    67   33  101 1    
    68   33  102 1    
    69   33  103 1    
    70   34   35 am   BACKBONE|DICT|INTERRES
    71   34  104 1    
    72   35   36 2    
    73   37   38 2    
    74   37   39 am   BACKBONE|DICT|INTERRES
    75   39   40 1    
    76   39  105 1    
    77   40   41 1    
    78   40   42 1    
    79   40  106 1    
    80   41  107 1    
    81   41  108 1    
    82   41  109 1    
    83   42   43 2    
    84   42   44 am   BACKBONE|DICT|INTERRES
    85   44   45 1    
    86   44  110 1    
    87   45   46 1    
    88   45   47 1    
    89   45  111 1    
    90   46  112 1    
    91   46  113 1    
    92   46  114 1    
    93   47   48 2    
    94   47   49 am   BACKBONE|DICT|INTERRES
    95   49   50 1    
    96   49  115 1    
    97   50   51 1    
    98   50   52 1    
    99   50  116 1    
   100   51  117 1    
   101   51  118 1    
   102   51  119 1    
   103   52   53 2    
   104   52   54 am   BACKBONE|DICT|INTERRES
   105   54   55 1    
   106   54  120 1    
   107   55   56 1    
   108   55   57 1    
   109   55  121 1    
   110   56  122 1    
   111   56  123 1    
   112   56  124 1    
   113   57   58 2    
   114   57   59 am   BACKBONE|DICT|INTERRES
   115   59   60 1    
   116   59  125 1    
   117   60   61 1    
   118   60   62 1    
   119   60  126 1    
   120   61  127 1    
   121   61  128 1    
   122   61  129 1    
   123   62   63 2    
   124   62   64 am   BACKBONE|DICT|INTERRES
   125   64   65 1    
   126   64  130 1    
   127   65   66 1    
   128   65   69 1    
   129   65  131 1    
   130   66   67 am   BACKBONE|DICT|INTERRES
   131   66   68 2    
   132   67  132 1    
   133   67  133 1    
   134   69   70 1    
   135   69  134 1    
   136   69  135 1    
   137   70   71 1    
   138   71  136 1    
   139   71  137 1    
@<TRIPOS>SUBSTRUCTURE
     1 UNK         1 GROUP             0       ****    0 ROOT    
