@<TRIPOS>MOLECULE
3R137
137   139    1
SMALL
USER_CHARGES


@<TRIPOS>ATOM
      1 CA         29.7098   -6.4396   -3.2715 C.3       0 UNK        -0.2020 
      2 C          29.0251   -5.9138   -2.0191 C.2       0 UNK         0.4855 
      3 O          28.4102   -6.6879   -1.2857 O.2       0 UNK        -0.5197 
      4 N          29.1351   -4.6032   -1.7663 N.am      1 UNK        -0.4892 
      5 CA         28.5991   -3.9166   -0.5821 C.3       1 UNK         0.0835 
      6 C6         29.1493   -2.4729   -0.4307 C.3       12 UNK        -0.0855 
      7 S7         30.9673   -2.3450   -0.5777 S.3       12 UNK        -0.2931 
      8 C8         31.1581   -1.3062   -2.0654 C.3       12 UNK         0.0378 
      9 C9         31.0341   -2.1158   -3.3491 C.ar      12 UNK        -0.0802 
     10 C10        32.1814   -2.5821   -3.9960 C.ar      12 UNK        -0.0944 
     11 C11        32.0788   -3.3119   -5.1825 C.ar      12 UNK        -0.0787 
     12 C12        30.8158   -3.6026   -5.7052 C.ar      12 UNK        -0.0862 
     13 C13        29.6564   -3.1549   -5.0662 C.ar      12 UNK        -0.0733 
     14 C14        29.7788   -2.3894   -3.8986 C.ar      12 UNK        -0.0832 
     15 C15        28.2986   -3.5625   -5.6401 C.3       12 UNK         0.0240 
     16 S16        26.9186   -2.4591   -5.1952 S.3       12 UNK        -0.2522 
     17 C17        27.3924   -0.9445   -6.0917 C.3       12 UNK        -0.0967 
     18 CA         26.1968   -0.2939   -6.8329 C.3       5 UNK         0.0660 
     19 N          25.1007   -0.0379   -5.8903 N.am      5 UNK        -0.4015 
     20 C          23.8206    0.2622   -6.1366 C.2       4 UNK         0.4946 
     21 O          23.3849    0.4904   -7.2662 O.2       4 UNK        -0.5353 
     22 CA         22.8584    0.3057   -4.9291 C.3       4 UNK         0.0277 
     23 CB         21.6237   -0.5770   -5.1817 C.3       4 UNK        -0.1981 
     24 N          23.4704   -0.1045   -3.6581 N.am      4 UNK        -0.4209 
     25 C          24.3045    0.6276   -2.9106 C.2       3 UNK         0.4942 
     26 O          24.6513    1.7695   -3.2104 O.2       3 UNK        -0.5208 
     27 CA         24.8949   -0.0232   -1.6447 C.3       3 UNK         0.0250 
     28 CB         24.0251    0.2870   -0.4109 C.3       3 UNK        -0.1990 
     29 N          25.1884   -1.4642   -1.7465 N.am      3 UNK        -0.4232 
     30 C          24.3424   -2.5007   -1.8596 C.2       2 UNK         0.4993 
     31 O          23.1244   -2.3703   -1.9860 O.2       2 UNK        -0.5286 
     32 CA         24.9428   -3.9215   -1.8602 C.3       2 UNK         0.0209 
     33 CB         24.5526   -4.6872   -3.1369 C.3       2 UNK        -0.1931 
     34 N          26.4036   -3.9504   -1.7102 N.am      2 UNK        -0.4546 
     35 C          27.0544   -3.8879   -0.5379 C.2       1 UNK         0.5154 
     36 O          26.4840   -3.7839    0.5485 O.2       1 UNK        -0.5181 
     37 C          26.6533    0.9401   -7.6501 C.2       5 UNK         0.5014 
     38 O          27.8484    1.0757   -7.9263 O.2       5 UNK        -0.5248 
     39 N          25.7188    1.8139   -8.0438 N.am      6 UNK        -0.4434 
     40 CA         25.9687    3.0445   -8.7997 C.3       6 UNK         0.0363 
     41 CB         24.6687    3.8571   -8.9017 C.3       6 UNK        -0.1936 
     42 C          26.5607    2.7887  -10.1949 C.2       6 UNK         0.5081 
     43 O          27.4340    3.5397  -10.6271 O.2       6 UNK        -0.5248 
     44 N          26.1229    1.7029  -10.8487 N.am      7 UNK        -0.4718 
     45 CA         26.6250    1.2506  -12.1518 C.3       7 UNK         0.0273 
     46 CB         25.7187    0.1267  -12.6793 C.3       7 UNK        -0.1935 
     47 C          28.0941    0.7872  -12.1222 C.2       7 UNK         0.5018 
     48 O          28.7730    0.8724  -13.1457 O.2       7 UNK        -0.5186 
     49 N          28.5566    0.3242  -10.9533 N.am      8 UNK        -0.4240 
     50 CA         29.9434   -0.0640  -10.6883 C.3       8 UNK         0.0235 
     51 CB         29.9362   -1.3356   -9.8193 C.3       8 UNK        -0.2000 
     52 C          30.7357    1.0540   -9.9864 C.2       8 UNK         0.4941 
     53 O          31.9031    0.8342   -9.6611 O.2       8 UNK        -0.5273 
     54 N          30.0871    2.1968   -9.6995 N.am      9 UNK        -0.4262 
     55 CA         30.5710    3.3214   -8.8856 C.3       9 UNK         0.0264 
     56 CB         31.6472    4.1143   -9.6562 C.3       9 UNK        -0.1955 
     57 C          31.0441    2.8910   -7.4800 C.2       9 UNK         0.5031 
     58 O          32.0051    3.4600   -6.9571 O.2       9 UNK        -0.5390 
     59 N          30.4038    1.8462   -6.9273 N.am      10 UNK        -0.4204 
     60 CA         30.7769    1.1113   -5.7100 C.3       10 UNK         0.0237 
     61 CB         30.3978    1.9341   -4.4620 C.3       10 UNK        -0.1985 
     62 C          32.2473    0.6319   -5.6931 C.2       10 UNK         0.4970 
     63 O          32.8587    0.5828   -4.6243 O.2       10 UNK        -0.4914 
     64 N          32.7948    0.3269   -6.8801 N.am      11 UNK        -0.4285 
     65 CA         34.2082    0.0030   -7.1307 C.3       11 UNK         0.1007 
     66 C          35.2065    1.1574   -6.7992 C.2       11 UNK         0.5703 
     67 N          34.7696    2.4072   -6.6836 N.am      11 UNK        -0.7361 
     68 O          36.4085    0.9293   -6.6812 O.2       11 UNK        -0.4986 
     69 C69        34.6339   -1.3736   -6.5415 C.3       12 UNK        -0.0947 
     70 S70        33.7473   -2.7641   -7.3245 S.3       12 UNK        -0.2240 
     71 C71        33.3269   -3.8080   -5.8947 C.3       12 UNK         0.0194 
     72 H72        28.9689   -6.6858   -4.0313 H         1 UNK         0.0906 
     73 H73        30.4041   -5.7116   -3.6901 H         1 UNK         0.0906 
     74 H74        30.2739   -7.3428   -3.0404 H         1 UNK         0.0906 
     75 H75        29.6995   -4.0286   -2.3788 H         1 UNK         0.3140 
     76 H76        28.9247   -4.4891    0.2895 H         1 UNK         0.1085 
     77 H77        28.6793   -1.7979   -1.1463 H         1 UNK         0.0836 
     78 H78        28.8789   -2.0806    0.5519 H         1 UNK         0.0836 
     79 H79        30.4272   -0.4970   -2.0522 H         1 UNK         0.0731 
     80 H80        32.1357   -0.8223   -2.0292 H         1 UNK         0.0731 
     81 H81        33.1560   -2.3628   -3.5821 H         1 UNK         0.1312 
     82 H82        30.7389   -4.1880   -6.6116 H         1 UNK         0.1406 
     83 H83        28.8969   -2.0196   -3.3986 H         1 UNK         0.1631 
     84 H84        28.3536   -3.6295   -6.7280 H         1 UNK         0.0717 
     85 H85        28.0620   -4.5651   -5.2825 H         1 UNK         0.0717 
     86 H86        27.8239   -0.2452   -5.3732 H         1 UNK         0.0934 
     87 H87        28.1908   -1.1908   -6.7936 H         1 UNK         0.0934 
     88 H88        25.8261   -1.0139   -7.5650 H         1 UNK         0.0739 
     89 H89        25.3419   -0.1875   -4.9228 H         1 UNK         0.3093 
     90 H90        22.5230    1.3401   -4.8293 H         1 UNK         0.0818 
     91 H91        20.9126   -0.5094   -4.3581 H         1 UNK         0.0819 
     92 H92        21.0964   -0.2701   -6.0861 H         1 UNK         0.0819 
     93 H93        21.8975   -1.6259   -5.3028 H         1 UNK         0.0819 
     94 H94        23.2188   -1.0218   -3.2959 H         1 UNK         0.3041 
     95 H95        25.8625    0.4552   -1.4834 H         1 UNK         0.0784 
     96 H96        23.9053    1.3634   -0.2802 H         1 UNK         0.0793 
     97 H97        23.0256   -0.1403   -0.4967 H         1 UNK         0.0793 
     98 H98        24.4785   -0.1012    0.5012 H         1 UNK         0.0793 
     99 H99        26.1681   -1.7002   -1.6986 H         1 UNK         0.3024 
    100 H100       24.4962   -4.4448   -1.0113 H         1 UNK         0.1171 
    101 H101       24.9509   -5.7020   -3.1282 H         1 UNK         0.0786 
    102 H102       23.4686   -4.7696   -3.2275 H         1 UNK         0.0786 
    103 H103       24.9137   -4.1924   -4.0374 H         1 UNK         0.0786 
    104 H104       26.9479   -4.0474   -2.5555 H         1 UNK         0.2977 
    105 H105       24.7514    1.5852   -7.8221 H         1 UNK         0.3127 
    106 H106       26.6972    3.6335   -8.2383 H         1 UNK         0.0770 
    107 H107       23.8863    3.3051   -9.4242 H         1 UNK         0.0814 
    108 H108       24.8319    4.7881   -9.4467 H         1 UNK         0.0814 
    109 H109       24.2893    4.1230   -7.9150 H         1 UNK         0.0814 
    110 H110       25.4016    1.1434  -10.4159 H         1 UNK         0.2983 
    111 H111       26.5659    2.0936  -12.8442 H         1 UNK         0.0947 
    112 H112       26.0508   -0.2136  -13.6613 H         1 UNK         0.0806 
    113 H113       24.6882    0.4653  -12.7885 H         1 UNK         0.0806 
    114 H114       25.7207   -0.7398  -12.0168 H         1 UNK         0.0806 
    115 H115       27.9330    0.3222  -10.1573 H         1 UNK         0.3000 
    116 H116       30.4582   -0.2901  -11.6245 H         1 UNK         0.0850 
    117 H117       29.3907   -2.1451  -10.3046 H         1 UNK         0.0810 
    118 H118       29.4775   -1.1570   -8.8465 H         1 UNK         0.0810 
    119 H119       30.9504   -1.6951   -9.6380 H         1 UNK         0.0810 
    120 H120       29.1298    2.2877  -10.0173 H         1 UNK         0.3040 
    121 H121       29.7148    3.9796   -8.7311 H         1 UNK         0.0766 
    122 H122       31.2861    4.4206  -10.6379 H         1 UNK         0.0812 
    123 H123       32.5547    3.5267   -9.7999 H         1 UNK         0.0812 
    124 H124       31.9277    5.0206   -9.1182 H         1 UNK         0.0812 
    125 H125       29.5854    1.4897   -7.4200 H         1 UNK         0.3205 
    126 H126       30.1768    0.2011   -5.7043 H         1 UNK         0.0754 
    127 H127       30.9823    2.8523   -4.3953 H         1 UNK         0.0769 
    128 H128       30.5739    1.3691   -3.5471 H         1 UNK         0.0769 
    129 H129       29.3426    2.2073   -4.4743 H         1 UNK         0.0769 
    130 H130       32.2422    0.4491   -7.7222 H         1 UNK         0.2981 
    131 H131       34.2803   -0.0849   -8.2152 H         1 UNK         0.0541 
    132 H132       33.7843    2.6333   -6.7810 H         1 UNK         0.3459 
    133 H133       35.4310    3.1395   -6.4823 H         1 UNK         0.3459 
    134 H134       34.4895   -1.3906   -5.4611 H         1 UNK         0.0612 
    135 H135       35.6969   -1.5559   -6.7059 H         1 UNK         0.0612 
    136 H136       34.1757   -3.8574   -5.2109 H         1 UNK         0.0624 
    137 H137       33.1599   -4.8276   -6.2450 H         1 UNK         0.0624 
@<TRIPOS>BOND
     1    1    2 1    
     2    1   72 1    
     3    1   73 1    
     4    1   74 1    
     5    2    3 2    
     6    2    4 am   BACKBONE|DICT|INTERRES
     7    4    5 1    
     8    4   75 1    
     9    5    6 1    
    10    5   35 1    
    11    5   76 1    
    12    6    7 1    
    13    6   77 1    
    14    6   78 1    
    15    7    8 1    
    16    8    9 1    
    17    8   79 1    
    18    8   80 1    
    19    9   10 ar   
    20    9   14 ar   
    21   10   11 ar   
    22   10   81 1    
    23   11   12 ar   
    24   11   71 1    
    25   12   13 ar   
    26   12   82 1    
    27   13   14 ar   
    28   13   15 1    
    29   14   83 1    
    30   15   16 1    
    31   15   84 1    
    32   15   85 1    
    33   16   17 1    
    34   17   18 1    
    35   17   86 1    
    36   17   87 1    
    37   18   19 1    
    38   18   37 1    
    39   18   88 1    
    40   19   20 am   BACKBONE|DICT|INTERRES
    41   19   89 1    
    42   20   21 2    
    43   20   22 1    
    44   22   23 1    
    45   22   24 1    
    46   22   90 1    
    47   23   91 1    
    48   23   92 1    
    49   23   93 1    
    50   24   25 am   BACKBONE|DICT|INTERRES
    51   24   94 1    
    52   25   26 2    
    53   25   27 1    
    54   27   28 1    
    55   27   29 1    
    56   27   95 1    
    57   28   96 1    
    58   28   97 1    
    59   28   98 1    
    60   29   30 am   BACKBONE|DICT|INTERRES
    61   29   99 1    
    62   30   31 2    
    63   30   32 1    
    64   32   33 1    
    65   32   34 1    
    66   32  100 1    
    67   33  101 1    
    68   33  102 1    
    69   33  103 1    
    70   34   35 am   BACKBONE|DICT|INTERRES
    71   34  104 1    
    72   35   36 2    
    73   37   38 2    
    74   37   39 am   BACKBONE|DICT|INTERRES
    75   39   40 1    
    76   39  105 1    
    77   40   41 1    
    78   40   42 1    
    79   40  106 1    
    80   41  107 1    
    81   41  108 1    
    82   41  109 1    
    83   42   43 2    
    84   42   44 am   BACKBONE|DICT|INTERRES
    85   44   45 1    
    86   44  110 1    
    87   45   46 1    
    88   45   47 1    
    89   45  111 1    
    90   46  112 1    
    91   46  113 1    
    92   46  114 1    
    93   47   48 2    
    94   47   49 am   BACKBONE|DICT|INTERRES
    95   49   50 1    
    96   49  115 1    
    97   50   51 1    
    98   50   52 1    
    99   50  116 1    
   100   51  117 1    
   101   51  118 1    
   102   51  119 1    
   103   52   53 2    
   104   52   54 am   BACKBONE|DICT|INTERRES
   105   54   55 1    
   106   54  120 1    
   107   55   56 1    
   108   55   57 1    
   109   55  121 1    
   110   56  122 1    
   111   56  123 1    
   112   56  124 1    
   113   57   58 2    
   114   57   59 am   BACKBONE|DICT|INTERRES
   115   59   60 1    
   116   59  125 1    
   117   60   61 1    
   118   60   62 1    
   119   60  126 1    
   120   61  127 1    
   121   61  128 1    
   122   61  129 1    
   123   62   63 2    
   124   62   64 am   BACKBONE|DICT|INTERRES
   125   64   65 1    
   126   64  130 1    
   127   65   66 1    
   128   65   69 1    
   129   65  131 1    
   130   66   67 am   BACKBONE|DICT|INTERRES
   131   66   68 2    
   132   67  132 1    
   133   67  133 1    
   134   69   70 1    
   135   69  134 1    
   136   69  135 1    
   137   70   71 1    
   138   71  136 1    
   139   71  137 1    
@<TRIPOS>SUBSTRUCTURE
     1 UNK         1 GROUP             0       ****    0 ROOT    
