@<TRIPOS>MOLECULE
3R137
137   139    1
SMALL
USER_CHARGES


@<TRIPOS>ATOM
      1 CA         25.2291   -7.4928   -5.1549 C.3       0 UNK        -0.2020 
      2 C          24.7506   -6.9216   -3.8287 C.2       0 UNK         0.4855 
      3 O          23.6313   -7.2099   -3.4047 O.2       0 UNK        -0.5197 
      4 N          25.5893   -6.1116   -3.1698 N.am      1 UNK        -0.4892 
      5 CA         25.2926   -5.4528   -1.8905 C.3       1 UNK         0.0835 
      6 C6         26.5894   -4.9715   -1.1904 C.3       12 UNK        -0.0855 
      7 S7         27.6097   -3.8268   -2.1899 S.3       12 UNK        -0.2931 
      8 C8         28.9098   -3.4521   -0.9766 C.3       12 UNK         0.0378 
      9 C9         30.0444   -2.6469   -1.5909 C.ar      12 UNK        -0.0802 
     10 C10        30.9712   -3.2801   -2.4244 C.ar      12 UNK        -0.0944 
     11 C11        32.0556   -2.5713   -2.9472 C.ar      12 UNK        -0.0787 
     12 C12        32.2201   -1.2271   -2.6089 C.ar      12 UNK        -0.0862 
     13 C13        31.2902   -0.5691   -1.7952 C.ar      12 UNK        -0.0733 
     14 C14        30.2009   -1.2888   -1.2907 C.ar      12 UNK        -0.0832 
     15 C15        31.4914    0.8893   -1.3859 C.3       12 UNK         0.0240 
     16 S16        32.3002    1.9210   -2.6603 S.3       12 UNK        -0.2522 
     17 C17        30.9013    2.7236   -3.5047 C.3       12 UNK        -0.0967 
     18 CA         30.5762    2.0904   -4.8807 C.3       5 UNK         0.0660 
     19 N          29.8978    0.7971   -4.7410 N.am      5 UNK        -0.4015 
     20 C          29.5495    0.0053   -5.7642 C.2       4 UNK         0.4946 
     21 O          29.9709    0.1650   -6.9092 O.2       4 UNK        -0.5353 
     22 CA         28.5252   -1.1153   -5.4981 C.3       4 UNK         0.0277 
     23 CB         29.1638   -2.5037   -5.6324 C.3       4 UNK        -0.1981 
     24 N          27.8080   -1.0454   -4.2173 N.am      4 UNK        -0.4209 
     25 C          27.0288   -0.0400   -3.7935 C.2       3 UNK         0.4942 
     26 O          26.8637    1.0093   -4.4171 O.2       3 UNK        -0.5208 
     27 CA         26.3170   -0.2711   -2.4532 C.3       3 UNK         0.0250 
     28 CB         25.7739    1.0263   -1.8162 C.3       3 UNK        -0.1990 
     29 N          25.2820   -1.2973   -2.6132 N.am      3 UNK        -0.4232 
     30 C          24.1270   -1.2202   -3.2950 C.2       2 UNK         0.4993 
     31 O          23.6678   -0.1765   -3.7576 O.2       2 UNK        -0.5286 
     32 CA         23.3582   -2.5382   -3.5312 C.3       2 UNK         0.0209 
     33 CB         22.8736   -2.6474   -4.9892 C.3       2 UNK        -0.1931 
     34 N          24.1613   -3.7254   -3.2236 N.am      2 UNK        -0.4546 
     35 C          24.2729   -4.3003   -2.0188 C.2       1 UNK         0.5154 
     36 O          23.6457   -3.9278   -1.0267 O.2       1 UNK        -0.5181 
     37 C          29.7479    3.0903   -5.7213 C.2       5 UNK         0.5014 
     38 O          30.3353    3.8833   -6.4583 O.2       5 UNK        -0.5248 
     39 N          28.4149    3.0452   -5.5858 N.am      6 UNK        -0.4434 
     40 CA         27.4690    3.9071   -6.2882 C.3       6 UNK         0.0363 
     41 CB         26.4793    4.5079   -5.2758 C.3       6 UNK        -0.1936 
     42 C          26.7196    3.1286   -7.3757 C.2       6 UNK         0.5081 
     43 O          26.6316    3.6186   -8.5015 O.2       6 UNK        -0.5248 
     44 N          26.1938    1.9401   -7.0373 N.am      7 UNK        -0.4718 
     45 CA         25.3870    1.0911   -7.9220 C.3       7 UNK         0.0273 
     46 CB         24.8257   -0.1046   -7.1362 C.3       7 UNK        -0.1935 
     47 C          26.1784    0.6399   -9.1600 C.2       7 UNK         0.5018 
     48 O          27.0773   -0.1961   -9.0435 O.2       7 UNK        -0.5186 
     49 N          25.8749    1.2789  -10.3013 N.am      8 UNK        -0.4240 
     50 CA         26.5536    1.1826  -11.6030 C.3       8 UNK         0.0235 
     51 CB         26.3693   -0.2280  -12.2025 C.3       8 UNK        -0.2000 
     52 C          28.0403    1.6035  -11.5817 C.2       8 UNK         0.4941 
     53 O          28.7420    1.3603  -12.5647 O.2       8 UNK        -0.5273 
     54 N          28.4996    2.1960  -10.4658 N.am      9 UNK        -0.4262 
     55 CA         29.8948    2.4742  -10.1024 C.3       9 UNK         0.0264 
     56 CB         30.4259    3.6797  -10.9044 C.3       9 UNK        -0.1955 
     57 C          30.8124    1.2348  -10.2062 C.2       9 UNK         0.5031 
     58 O          31.9844    1.3734  -10.5621 O.2       9 UNK        -0.5390 
     59 N          30.2653    0.0438   -9.9165 N.am      10 UNK        -0.4204 
     60 CA         30.9083   -1.2590  -10.1150 C.3       10 UNK         0.0237 
     61 CB         29.9000   -2.3739   -9.7971 C.3       10 UNK        -0.1985 
     62 C          32.2219   -1.4537   -9.3360 C.2       10 UNK         0.4970 
     63 O          33.1484   -2.0627   -9.8731 O.2       10 UNK        -0.4914 
     64 N          32.2882   -0.9127   -8.1153 N.am      11 UNK        -0.4285 
     65 CA         33.5027   -0.8432   -7.2867 C.3       11 UNK         0.1007 
     66 C          34.2468    0.5207   -7.4059 C.2       11 UNK         0.5703 
     67 N          33.8911    1.4097   -8.3263 N.am      11 UNK        -0.7361 
     68 O          35.1889    0.7769   -6.6599 O.2       11 UNK        -0.4986 
     69 C69        33.2082   -1.2184   -5.8105 C.3       12 UNK        -0.0947 
     70 S70        32.6995   -2.9601   -5.6201 S.3       12 UNK        -0.2240 
     71 C71        33.0624   -3.2582   -3.8597 C.3       12 UNK         0.0194 
     72 H72        26.2348   -7.1558   -5.4058 H         1 UNK         0.0906 
     73 H73        25.2375   -8.5816   -5.1129 H         1 UNK         0.0906 
     74 H74        24.5590   -7.1880   -5.9582 H         1 UNK         0.0906 
     75 H75        26.5031   -5.9111   -3.5538 H         1 UNK         0.3140 
     76 H76        24.8260   -6.1958   -1.2393 H         1 UNK         0.1085 
     77 H77        27.2032   -5.8391   -0.9417 H         1 UNK         0.0836 
     78 H78        26.3543   -4.4981   -0.2346 H         1 UNK         0.0836 
     79 H79        29.3109   -4.3846   -0.5760 H         1 UNK         0.0731 
     80 H80        28.4706   -2.9189   -0.1319 H         1 UNK         0.0731 
     81 H81        30.8467   -4.3275   -2.6641 H         1 UNK         0.1312 
     82 H82        33.0826   -0.6951   -2.9833 H         1 UNK         0.1406 
     83 H83        29.4947   -0.8009   -0.6322 H         1 UNK         0.1631 
     84 H84        32.1232    0.8990   -0.4969 H         1 UNK         0.0717 
     85 H85        30.5453    1.3429   -1.0878 H         1 UNK         0.0717 
     86 H86        30.0206    2.7413   -2.8603 H         1 UNK         0.0934 
     87 H87        31.1939    3.7694   -3.6249 H         1 UNK         0.0934 
     88 H88        31.5099    1.9180   -5.4209 H         1 UNK         0.0739 
     89 H89        29.5553    0.5641   -3.8221 H         1 UNK         0.3093 
     90 H90        27.7846   -1.0206   -6.2922 H         1 UNK         0.0818 
     91 H91        28.4077   -3.2879   -5.6674 H         1 UNK         0.0819 
     92 H92        29.7580   -2.5849   -6.5420 H         1 UNK         0.0819 
     93 H93        29.8271   -2.7169   -4.7979 H         1 UNK         0.0819 
     94 H94        27.8847   -1.8673   -3.6310 H         1 UNK         0.3041 
     95 H95        27.0557   -0.6819   -1.7633 H         1 UNK         0.0784 
     96 H96        26.5885    1.7179   -1.5986 H         1 UNK         0.0793 
     97 H97        25.0783    1.5515   -2.4711 H         1 UNK         0.0793 
     98 H98        25.2604    0.8218   -0.8769 H         1 UNK         0.0793 
     99 H99        25.5436   -2.2163   -2.2843 H         1 UNK         0.3024 
    100 H100       22.4811   -2.5156   -2.8803 H         1 UNK         0.1171 
    101 H101       22.3117   -3.5673   -5.1521 H         1 UNK         0.0786 
    102 H102       22.2130   -1.8191   -5.2494 H         1 UNK         0.0786 
    103 H103       23.7066   -2.6332   -5.6930 H         1 UNK         0.0786 
    104 H104       24.7252   -4.0999   -3.9734 H         1 UNK         0.2977 
    105 H105       27.9989    2.3181   -5.0070 H         1 UNK         0.3127 
    106 H106       27.9936    4.7331   -6.7735 H         1 UNK         0.0770 
    107 H107       25.9253    3.7358   -4.7398 H         1 UNK         0.0814 
    108 H108       25.7501    5.1473   -5.7751 H         1 UNK         0.0814 
    109 H109       26.9954    5.1209   -4.5369 H         1 UNK         0.0814 
    110 H110       26.3374    1.5973   -6.0899 H         1 UNK         0.2983 
    111 H111       24.5341    1.6868   -8.2543 H         1 UNK         0.0947 
    112 H112       25.6113   -0.7205   -6.7031 H         1 UNK         0.0806 
    113 H113       24.2262   -0.7488   -7.7806 H         1 UNK         0.0806 
    114 H114       24.1800    0.2301   -6.3251 H         1 UNK         0.0806 
    115 H115       25.1574    1.9901  -10.2536 H         1 UNK         0.3000 
    116 H116       26.0510    1.8927  -12.2613 H         1 UNK         0.0850 
    117 H117       26.7400   -0.2713  -13.2274 H         1 UNK         0.0810 
    118 H118       25.3181   -0.5145  -12.2289 H         1 UNK         0.0810 
    119 H119       26.9093   -0.9841  -11.6314 H         1 UNK         0.0810 
    120 H120       27.8166    2.4131   -9.7476 H         1 UNK         0.3040 
    121 H121       29.8850    2.7529   -9.0475 H         1 UNK         0.0766 
    122 H122       31.4176    3.9742  -10.5589 H         1 UNK         0.0812 
    123 H123       29.7753    4.5471  -10.7930 H         1 UNK         0.0812 
    124 H124       30.5046    3.4519  -11.9680 H         1 UNK         0.0812 
    125 H125       29.3114    0.0269   -9.5726 H         1 UNK         0.3205 
    126 H126       31.1587   -1.3287  -11.1755 H         1 UNK         0.0754 
    127 H127       30.3594   -3.3599   -9.8791 H         1 UNK         0.0769 
    128 H128       29.0567   -2.3495  -10.4877 H         1 UNK         0.0769 
    129 H129       29.5006   -2.2766   -8.7883 H         1 UNK         0.0769 
    130 H130       31.4648   -0.4394   -7.7454 H         1 UNK         0.2981 
    131 H131       34.2238   -1.5745   -7.6555 H         1 UNK         0.0541 
    132 H132       34.3984    2.2778   -8.3826 H         1 UNK         0.3459 
    133 H133       33.1643    1.2117   -9.0060 H         1 UNK         0.3459 
    134 H134       34.0961   -1.0690   -5.1943 H         1 UNK         0.0612 
    135 H135       32.4340   -0.5713   -5.3984 H         1 UNK         0.0612 
    136 H136       33.0520   -4.3345   -3.6819 H         1 UNK         0.0624 
    137 H137       34.0745   -2.9231   -3.6283 H         1 UNK         0.0624 
@<TRIPOS>BOND
     1    1    2 1    
     2    1   72 1    
     3    1   73 1    
     4    1   74 1    
     5    2    3 2    
     6    2    4 am   BACKBONE|DICT|INTERRES
     7    4    5 1    
     8    4   75 1    
     9    5    6 1    
    10    5   35 1    
    11    5   76 1    
    12    6    7 1    
    13    6   77 1    
    14    6   78 1    
    15    7    8 1    
    16    8    9 1    
    17    8   79 1    
    18    8   80 1    
    19    9   10 ar   
    20    9   14 ar   
    21   10   11 ar   
    22   10   81 1    
    23   11   12 ar   
    24   11   71 1    
    25   12   13 ar   
    26   12   82 1    
    27   13   14 ar   
    28   13   15 1    
    29   14   83 1    
    30   15   16 1    
    31   15   84 1    
    32   15   85 1    
    33   16   17 1    
    34   17   18 1    
    35   17   86 1    
    36   17   87 1    
    37   18   19 1    
    38   18   37 1    
    39   18   88 1    
    40   19   20 am   BACKBONE|DICT|INTERRES
    41   19   89 1    
    42   20   21 2    
    43   20   22 1    
    44   22   23 1    
    45   22   24 1    
    46   22   90 1    
    47   23   91 1    
    48   23   92 1    
    49   23   93 1    
    50   24   25 am   BACKBONE|DICT|INTERRES
    51   24   94 1    
    52   25   26 2    
    53   25   27 1    
    54   27   28 1    
    55   27   29 1    
    56   27   95 1    
    57   28   96 1    
    58   28   97 1    
    59   28   98 1    
    60   29   30 am   BACKBONE|DICT|INTERRES
    61   29   99 1    
    62   30   31 2    
    63   30   32 1    
    64   32   33 1    
    65   32   34 1    
    66   32  100 1    
    67   33  101 1    
    68   33  102 1    
    69   33  103 1    
    70   34   35 am   BACKBONE|DICT|INTERRES
    71   34  104 1    
    72   35   36 2    
    73   37   38 2    
    74   37   39 am   BACKBONE|DICT|INTERRES
    75   39   40 1    
    76   39  105 1    
    77   40   41 1    
    78   40   42 1    
    79   40  106 1    
    80   41  107 1    
    81   41  108 1    
    82   41  109 1    
    83   42   43 2    
    84   42   44 am   BACKBONE|DICT|INTERRES
    85   44   45 1    
    86   44  110 1    
    87   45   46 1    
    88   45   47 1    
    89   45  111 1    
    90   46  112 1    
    91   46  113 1    
    92   46  114 1    
    93   47   48 2    
    94   47   49 am   BACKBONE|DICT|INTERRES
    95   49   50 1    
    96   49  115 1    
    97   50   51 1    
    98   50   52 1    
    99   50  116 1    
   100   51  117 1    
   101   51  118 1    
   102   51  119 1    
   103   52   53 2    
   104   52   54 am   BACKBONE|DICT|INTERRES
   105   54   55 1    
   106   54  120 1    
   107   55   56 1    
   108   55   57 1    
   109   55  121 1    
   110   56  122 1    
   111   56  123 1    
   112   56  124 1    
   113   57   58 2    
   114   57   59 am   BACKBONE|DICT|INTERRES
   115   59   60 1    
   116   59  125 1    
   117   60   61 1    
   118   60   62 1    
   119   60  126 1    
   120   61  127 1    
   121   61  128 1    
   122   61  129 1    
   123   62   63 2    
   124   62   64 am   BACKBONE|DICT|INTERRES
   125   64   65 1    
   126   64  130 1    
   127   65   66 1    
   128   65   69 1    
   129   65  131 1    
   130   66   67 am   BACKBONE|DICT|INTERRES
   131   66   68 2    
   132   67  132 1    
   133   67  133 1    
   134   69   70 1    
   135   69  134 1    
   136   69  135 1    
   137   70   71 1    
   138   71  136 1    
   139   71  137 1    
@<TRIPOS>SUBSTRUCTURE
     1 UNK         1 GROUP             0       ****    0 ROOT    
