@<TRIPOS>MOLECULE
3R137
137   139    1
SMALL
USER_CHARGES


@<TRIPOS>ATOM
      1 CA         30.2000   -5.4610   -6.5620 C.3       0 UNK        -0.2020 
      2 C          29.0393   -5.9205   -5.6933 C.2       0 UNK         0.4855 
      3 O          28.3793   -6.9059   -6.0226 O.2       0 UNK        -0.5197 
      4 N          28.7914   -5.2169   -4.5813 N.am      1 UNK        -0.4892 
      5 CA         27.7213   -5.5116   -3.6185 C.3       1 UNK         0.0835 
      6 C6         27.9358   -4.7441   -2.2907 C.3       12 UNK        -0.0855 
      7 S7         29.2584   -5.4559   -1.2542 S.3       12 UNK        -0.2931 
      8 C8         30.8000   -4.8113   -1.9961 C.3       12 UNK         0.0378 
      9 C9         30.8936   -3.2905   -2.1196 C.ar      12 UNK        -0.0802 
     10 C10        31.6351   -2.7415   -3.1709 C.ar      12 UNK        -0.0944 
     11 C11        31.8192   -1.3596   -3.2777 C.ar      12 UNK        -0.0787 
     12 C12        31.2459   -0.5204   -2.3165 C.ar      12 UNK        -0.0862 
     13 C13        30.4814   -1.0484   -1.2725 C.ar      12 UNK        -0.0733 
     14 C14        30.3169   -2.4332   -1.1743 C.ar      12 UNK        -0.0832 
     15 C15        29.8678   -0.1315   -0.2237 C.3       12 UNK         0.0240 
     16 S16        28.2527    0.5274   -0.7503 S.3       12 UNK        -0.2522 
     17 C17        28.7431    1.9201   -1.8239 C.3       12 UNK        -0.0967 
     18 CA         28.2544    1.7453   -3.2855 C.3       5 UNK         0.0660 
     19 N          26.7903    1.7908   -3.3622 N.am      5 UNK        -0.4015 
     20 C          26.0365    1.2827   -4.3438 C.2       4 UNK         0.4946 
     21 O          26.4805    0.6418   -5.3008 O.2       4 UNK        -0.5353 
     22 CA         24.5413    1.6027   -4.2829 C.3       4 UNK         0.0277 
     23 CB         24.1741    2.6668   -5.3316 C.3       4 UNK        -0.1981 
     24 N          23.7967    0.3779   -4.5475 N.am      4 UNK        -0.4209 
     25 C          22.7475   -0.0551   -3.8373 C.2       3 UNK         0.4942 
     26 O          22.2252    0.5927   -2.9285 O.2       3 UNK        -0.5208 
     27 CA         22.1668   -1.4415   -4.1848 C.3       3 UNK         0.0250 
     28 CB         20.8272   -1.2897   -4.9253 C.3       3 UNK        -0.1990 
     29 N          23.0523   -2.3019   -4.9782 N.am      3 UNK        -0.4232 
     30 C          24.2335   -2.7854   -4.5698 C.2       2 UNK         0.4993 
     31 O          24.7207   -2.5505   -3.4612 O.2       2 UNK        -0.5286 
     32 CA         24.9986   -3.6385   -5.5989 C.3       2 UNK         0.0209 
     33 CB         25.3415   -2.8141   -6.8494 C.3       2 UNK        -0.1931 
     34 N          26.2427   -4.1763   -5.0505 N.am      2 UNK        -0.4546 
     35 C          26.3230   -5.1984   -4.1892 C.2       1 UNK         0.5154 
     36 O          25.3561   -5.8791   -3.8410 O.2       1 UNK        -0.5181 
     37 C          28.8450    2.8196   -4.2247 C.2       5 UNK         0.5014 
     38 O          29.4219    3.8038   -3.7570 O.2       5 UNK        -0.5248 
     39 N          28.6290    2.6412   -5.5304 N.am      6 UNK        -0.4434 
     40 CA         29.0042    3.5681   -6.5920 C.3       6 UNK         0.0363 
     41 CB         27.9282    4.6677   -6.7306 C.3       6 UNK        -0.1936 
     42 C          29.2522    2.7696   -7.8787 C.2       6 UNK         0.5081 
     43 O          29.7495    1.6438   -7.8069 O.2       6 UNK        -0.5248 
     44 N          28.9137    3.3484   -9.0397 N.am      7 UNK        -0.4718 
     45 CA         29.1194    2.7691  -10.3738 C.3       7 UNK         0.0273 
     46 CB         28.6325    3.7602  -11.4422 C.3       7 UNK        -0.1935 
     47 C          28.4607    1.3935  -10.5736 C.2       7 UNK         0.5018 
     48 O          29.0313    0.5503  -11.2645 O.2       7 UNK        -0.5186 
     49 N          27.3145    1.1690   -9.9152 N.am      8 UNK        -0.4240 
     50 CA         26.6074   -0.1143   -9.8719 C.3       8 UNK         0.0235 
     51 CB         25.2698    0.0708   -9.1363 C.3       8 UNK        -0.2000 
     52 C          27.4293   -1.2424   -9.2196 C.2       8 UNK         0.4941 
     53 O          27.3308   -2.3888   -9.6559 O.2       8 UNK        -0.5273 
     54 N          28.2387   -0.8924   -8.2101 N.am      9 UNK        -0.4262 
     55 CA         29.1635   -1.7886   -7.5125 C.3       9 UNK         0.0264 
     56 CB         29.1668   -1.4250   -6.0166 C.3       9 UNK        -0.1955 
     57 C          30.5885   -1.7319   -8.1008 C.2       9 UNK         0.5031 
     58 O          31.4861   -2.3643   -7.5439 O.2       9 UNK        -0.5390 
     59 N          30.7730   -0.9871   -9.2030 N.am      10 UNK        -0.4204 
     60 CA         32.0283   -0.7285   -9.9148 C.3       10 UNK         0.0237 
     61 CB         32.5918   -2.0266  -10.5333 C.3       10 UNK        -0.1985 
     62 C          33.0629    0.0433   -9.0711 C.2       10 UNK         0.4970 
     63 O          34.2610   -0.2251   -9.1829 O.2       10 UNK        -0.4914 
     64 N          32.5927    1.0035   -8.2654 N.am      11 UNK        -0.4285 
     65 CA         33.4256    1.8587   -7.4050 C.3       11 UNK         0.1007 
     66 C          32.9749    3.3460   -7.3867 C.2       11 UNK         0.5703 
     67 N          32.3503    3.8435   -8.4474 N.am      11 UNK        -0.7361 
     68 O          33.2182    4.0731   -6.4269 O.2       11 UNK        -0.4986 
     69 C69        33.6841    1.2323   -6.0081 C.3       12 UNK        -0.0947 
     70 S70        32.1798    0.7955   -5.0698 S.3       12 UNK        -0.2240 
     71 C71        32.7132   -0.8096   -4.3858 C.3       12 UNK         0.0194 
     72 H72        30.7188   -4.6040   -6.1325 H         1 UNK         0.0906 
     73 H73        30.9232   -6.2675   -6.6793 H         1 UNK         0.0906 
     74 H74        29.8422   -5.1794   -7.5519 H         1 UNK         0.0906 
     75 H75        29.3744   -4.4252   -4.3526 H         1 UNK         0.3140 
     76 H76        27.7381   -6.5838   -3.4084 H         1 UNK         0.1085 
     77 H77        28.1212   -3.6844   -2.4742 H         1 UNK         0.0836 
     78 H78        27.0306   -4.7773   -1.6799 H         1 UNK         0.0836 
     79 H79        30.9460   -5.2852   -2.9669 H         1 UNK         0.0731 
     80 H80        31.6334   -5.1469   -1.3777 H         1 UNK         0.0731 
     81 H81        32.1044   -3.3958   -3.8934 H         1 UNK         0.1312 
     82 H82        31.4116    0.5453   -2.3722 H         1 UNK         0.1406 
     83 H83        29.7512   -2.8428   -0.3487 H         1 UNK         0.1631 
     84 H84        30.5492    0.6868    0.0140 H         1 UNK         0.0717 
     85 H85        29.7269   -0.6795    0.7092 H         1 UNK         0.0717 
     86 H86        28.3412    2.8391   -1.3927 H         1 UNK         0.0934 
     87 H87        29.8265    2.0381   -1.7915 H         1 UNK         0.0934 
     88 H88        28.6005    0.7734   -3.6460 H         1 UNK         0.0739 
     89 H89        26.3368    2.3169   -2.6298 H         1 UNK         0.3093 
     90 H90        24.3025    1.9865   -3.2885 H         1 UNK         0.0818 
     91 H91        24.7291    3.5907   -5.1631 H         1 UNK         0.0819 
     92 H92        24.3995    2.3304   -6.3446 H         1 UNK         0.0819 
     93 H93        23.1130    2.9127   -5.2896 H         1 UNK         0.0819 
     94 H94        24.2112   -0.2349   -5.2360 H         1 UNK         0.3041 
     95 H95        21.9771   -1.9515   -3.2379 H         1 UNK         0.0784 
     96 H96        20.1265   -0.6856   -4.3470 H         1 UNK         0.0793 
     97 H97        20.9540   -0.8030   -5.8932 H         1 UNK         0.0793 
     98 H98        20.3529   -2.2569   -5.0932 H         1 UNK         0.0793 
     99 H99        22.7260   -2.5399   -5.9040 H         1 UNK         0.3024 
    100 H100       24.3572   -4.4742   -5.8888 H         1 UNK         0.1171 
    101 H101       24.4424   -2.4905   -7.3736 H         1 UNK         0.0786 
    102 H102       25.9158   -1.9211   -6.5989 H         1 UNK         0.0786 
    103 H103       25.9248   -3.4023   -7.5577 H         1 UNK         0.0786 
    104 H104       27.0878   -3.6681   -5.2591 H         1 UNK         0.2977 
    105 H105       28.1440    1.7988   -5.8236 H         1 UNK         0.3127 
    106 H106       29.9565    4.0357   -6.3330 H         1 UNK         0.0770 
    107 H107       28.2278    5.4359   -7.4443 H         1 UNK         0.0814 
    108 H108       27.7611    5.1764   -5.7810 H         1 UNK         0.0814 
    109 H109       26.9708    4.2584   -7.0561 H         1 UNK         0.0814 
    110 H110       28.5116    4.2744   -9.0101 H         1 UNK         0.2983 
    111 H111       30.1941    2.6286  -10.5050 H         1 UNK         0.0947 
    112 H112       28.7921    3.3625  -12.4457 H         1 UNK         0.0806 
    113 H113       29.1719    4.7057  -11.3826 H         1 UNK         0.0806 
    114 H114       27.5675    3.9732  -11.3418 H         1 UNK         0.0806 
    115 H115       26.9250    1.9254   -9.3719 H         1 UNK         0.3000 
    116 H116       26.3973   -0.4113  -10.9018 H         1 UNK         0.0850 
    117 H117       25.4161    0.3433   -8.0897 H         1 UNK         0.0810 
    118 H118       24.6865   -0.8502   -9.1575 H         1 UNK         0.0810 
    119 H119       24.6611    0.8448   -9.6040 H         1 UNK         0.0810 
    120 H120       28.3107    0.0864   -7.9588 H         1 UNK         0.3040 
    121 H121       28.8170   -2.8193   -7.6084 H         1 UNK         0.0766 
    122 H122       28.1716   -1.5079   -5.5811 H         1 UNK         0.0812 
    123 H123       29.5158   -0.4050   -5.8549 H         1 UNK         0.0812 
    124 H124       29.8243   -2.0847   -5.4506 H         1 UNK         0.0812 
    125 H125       29.9630   -0.5161   -9.5868 H         1 UNK         0.3205 
    126 H126       31.7687   -0.0647  -10.7405 H         1 UNK         0.0754 
    127 H127       33.4395   -1.8136  -11.1858 H         1 UNK         0.0769 
    128 H128       31.8408   -2.5362  -11.1369 H         1 UNK         0.0769 
    129 H129       32.9380   -2.7233   -9.7692 H         1 UNK         0.0769 
    130 H130       31.5901    1.1535   -8.1836 H         1 UNK         0.2981 
    131 H131       34.4078    1.9344   -7.8749 H         1 UNK         0.0541 
    132 H132       32.1957    3.2754   -9.2633 H         1 UNK         0.3459 
    133 H133       32.0866    4.8156   -8.4495 H         1 UNK         0.3459 
    134 H134       34.2968    1.8914   -5.3912 H         1 UNK         0.0612 
    135 H135       34.2833    0.3312   -6.1463 H         1 UNK         0.0612 
    136 H136       33.7204   -0.7051   -3.9806 H         1 UNK         0.0624 
    137 H137       32.7780   -1.5219   -5.2099 H         1 UNK         0.0624 
@<TRIPOS>BOND
     1    1    2 1    
     2    1   72 1    
     3    1   73 1    
     4    1   74 1    
     5    2    3 2    
     6    2    4 am   BACKBONE|DICT|INTERRES
     7    4    5 1    
     8    4   75 1    
     9    5    6 1    
    10    5   35 1    
    11    5   76 1    
    12    6    7 1    
    13    6   77 1    
    14    6   78 1    
    15    7    8 1    
    16    8    9 1    
    17    8   79 1    
    18    8   80 1    
    19    9   10 ar   
    20    9   14 ar   
    21   10   11 ar   
    22   10   81 1    
    23   11   12 ar   
    24   11   71 1    
    25   12   13 ar   
    26   12   82 1    
    27   13   14 ar   
    28   13   15 1    
    29   14   83 1    
    30   15   16 1    
    31   15   84 1    
    32   15   85 1    
    33   16   17 1    
    34   17   18 1    
    35   17   86 1    
    36   17   87 1    
    37   18   19 1    
    38   18   37 1    
    39   18   88 1    
    40   19   20 am   BACKBONE|DICT|INTERRES
    41   19   89 1    
    42   20   21 2    
    43   20   22 1    
    44   22   23 1    
    45   22   24 1    
    46   22   90 1    
    47   23   91 1    
    48   23   92 1    
    49   23   93 1    
    50   24   25 am   BACKBONE|DICT|INTERRES
    51   24   94 1    
    52   25   26 2    
    53   25   27 1    
    54   27   28 1    
    55   27   29 1    
    56   27   95 1    
    57   28   96 1    
    58   28   97 1    
    59   28   98 1    
    60   29   30 am   BACKBONE|DICT|INTERRES
    61   29   99 1    
    62   30   31 2    
    63   30   32 1    
    64   32   33 1    
    65   32   34 1    
    66   32  100 1    
    67   33  101 1    
    68   33  102 1    
    69   33  103 1    
    70   34   35 am   BACKBONE|DICT|INTERRES
    71   34  104 1    
    72   35   36 2    
    73   37   38 2    
    74   37   39 am   BACKBONE|DICT|INTERRES
    75   39   40 1    
    76   39  105 1    
    77   40   41 1    
    78   40   42 1    
    79   40  106 1    
    80   41  107 1    
    81   41  108 1    
    82   41  109 1    
    83   42   43 2    
    84   42   44 am   BACKBONE|DICT|INTERRES
    85   44   45 1    
    86   44  110 1    
    87   45   46 1    
    88   45   47 1    
    89   45  111 1    
    90   46  112 1    
    91   46  113 1    
    92   46  114 1    
    93   47   48 2    
    94   47   49 am   BACKBONE|DICT|INTERRES
    95   49   50 1    
    96   49  115 1    
    97   50   51 1    
    98   50   52 1    
    99   50  116 1    
   100   51  117 1    
   101   51  118 1    
   102   51  119 1    
   103   52   53 2    
   104   52   54 am   BACKBONE|DICT|INTERRES
   105   54   55 1    
   106   54  120 1    
   107   55   56 1    
   108   55   57 1    
   109   55  121 1    
   110   56  122 1    
   111   56  123 1    
   112   56  124 1    
   113   57   58 2    
   114   57   59 am   BACKBONE|DICT|INTERRES
   115   59   60 1    
   116   59  125 1    
   117   60   61 1    
   118   60   62 1    
   119   60  126 1    
   120   61  127 1    
   121   61  128 1    
   122   61  129 1    
   123   62   63 2    
   124   62   64 am   BACKBONE|DICT|INTERRES
   125   64   65 1    
   126   64  130 1    
   127   65   66 1    
   128   65   69 1    
   129   65  131 1    
   130   66   67 am   BACKBONE|DICT|INTERRES
   131   66   68 2    
   132   67  132 1    
   133   67  133 1    
   134   69   70 1    
   135   69  134 1    
   136   69  135 1    
   137   70   71 1    
   138   71  136 1    
   139   71  137 1    
@<TRIPOS>SUBSTRUCTURE
     1 UNK         1 GROUP             0       ****    0 ROOT    
