@<TRIPOS>MOLECULE
3R137
137   139    1
SMALL
USER_CHARGES


@<TRIPOS>ATOM
      1 CA         23.7971   -4.3336    0.1566 C.3       0 UNK        -0.2020 
      2 C          25.2384   -3.9487    0.4545 C.2       0 UNK         0.4855 
      3 O          25.5014   -3.2968    1.4650 O.2       0 UNK        -0.5197 
      4 N          26.1740   -4.3436   -0.4198 N.am      1 UNK        -0.4892 
      5 CA         27.6078   -4.0356   -0.3092 C.3       1 UNK         0.0835 
      6 C6         28.4514   -5.0526   -1.1198 C.3       12 UNK        -0.0855 
      7 S7         30.1732   -5.1847   -0.5149 S.3       12 UNK        -0.2931 
      8 C8         31.1060   -5.6438   -2.0140 C.3       12 UNK         0.0378 
      9 C9         30.8934   -4.6609   -3.1565 C.ar      12 UNK        -0.0802 
     10 C10        31.4141   -3.3642   -3.0870 C.ar      12 UNK        -0.0944 
     11 C11        31.1738   -2.4460   -4.1148 C.ar      12 UNK        -0.0787 
     12 C12        30.4060   -2.8415   -5.2144 C.ar      12 UNK        -0.0862 
     13 C13        29.8884   -4.1365   -5.3005 C.ar      12 UNK        -0.0733 
     14 C14        30.1467   -5.0459   -4.2739 C.ar      12 UNK        -0.0832 
     15 C15        29.0519   -4.5569   -6.5004 C.3       12 UNK         0.0240 
     16 S16        27.2997   -4.8408   -6.0795 S.3       12 UNK        -0.2522 
     17 C17        26.7452   -3.2238   -5.4397 C.3       12 UNK        -0.0967 
     18 CA         26.4566   -2.1900   -6.5640 C.3       5 UNK         0.0660 
     19 N          25.2145   -1.4454   -6.3446 N.am      5 UNK        -0.4015 
     20 C          24.6264   -0.6777   -7.2761 C.2       4 UNK         0.4946 
     21 O          25.0380   -0.5664   -8.4307 O.2       4 UNK        -0.5353 
     22 CA         23.3997    0.1444   -6.8458 C.3       4 UNK         0.0277 
     23 CB         22.1070   -0.6498   -7.0902 C.3       4 UNK        -0.1981 
     24 N          23.4481    0.5847   -5.4498 N.am      4 UNK        -0.4209 
     25 C          24.4006    1.3660   -4.9220 C.2       3 UNK         0.4942 
     26 O          25.3428    1.8240   -5.5698 O.2       3 UNK        -0.5208 
     27 CA         24.3164    1.6634   -3.4137 C.3       3 UNK         0.0250 
     28 CB         23.0056    1.1856   -2.7461 C.3       3 UNK        -0.1990 
     29 N          25.4724    1.1379   -2.6765 N.am      3 UNK        -0.4232 
     30 C          25.9150   -0.1288   -2.6460 C.2       2 UNK         0.4993 
     31 O          25.4568   -1.0354   -3.3483 O.2       2 UNK        -0.5286 
     32 CA         27.0543   -0.4408   -1.6600 C.3       2 UNK         0.0209 
     33 CB         26.9881    0.4281   -0.3797 C.3       2 UNK        -0.1931 
     34 N          26.9978   -1.8623   -1.3230 N.am      2 UNK        -0.4546 
     35 C          27.9333   -2.5616   -0.6658 C.2       1 UNK         0.5154 
     36 O          29.0062   -2.0728   -0.3088 O.2       1 UNK        -0.5181 
     37 C          27.6365   -1.2209   -6.7536 C.2       5 UNK         0.5014 
     38 O          28.3975   -1.3699   -7.7092 O.2       5 UNK        -0.5248 
     39 N          27.7464   -0.2255   -5.8598 N.am      6 UNK        -0.4434 
     40 CA         28.7766    0.8153   -5.9034 C.3       6 UNK         0.0363 
     41 CB         28.7104    1.6959   -4.6454 C.3       6 UNK        -0.1936 
     42 C          28.6989    1.6753   -7.1699 C.2       6 UNK         0.5081 
     43 O          29.7421    1.9919   -7.7403 O.2       6 UNK        -0.5248 
     44 N          27.4731    2.0000   -7.6012 N.am      7 UNK        -0.4718 
     45 CA         27.1930    2.6944   -8.8574 C.3       7 UNK         0.0273 
     46 CB         25.7079    3.0865   -8.9084 C.3       7 UNK        -0.1935 
     47 C          27.5857    1.8671  -10.0938 C.2       7 UNK         0.5018 
     48 O          28.2053    2.4137  -11.0064 O.2       7 UNK        -0.5186 
     49 N          27.2358    0.5718  -10.0982 N.am      8 UNK        -0.4240 
     50 CA         27.5461   -0.3664  -11.1805 C.3       8 UNK         0.0235 
     51 CB         26.7458   -1.6653  -10.9904 C.3       8 UNK        -0.2000 
     52 C          29.0477   -0.6697  -11.3061 C.2       8 UNK         0.4941 
     53 O          29.5771   -0.6439  -12.4180 O.2       8 UNK        -0.5273 
     54 N          29.7056   -0.9517  -10.1735 N.am      9 UNK        -0.4262 
     55 CA         31.1352   -1.2702  -10.1081 C.3       9 UNK         0.0264 
     56 CB         31.4183   -2.0339   -8.8069 C.3       9 UNK        -0.1955 
     57 C          32.0497   -0.0367  -10.2043 C.2       9 UNK         0.5031 
     58 O          33.2385   -0.2051  -10.4804 O.2       9 UNK        -0.5390 
     59 N          31.4941    1.1597   -9.9602 N.am      10 UNK        -0.4204 
     60 CA         32.1705    2.4568   -9.8617 C.3       10 UNK         0.0237 
     61 CB         32.8093    2.8662  -11.2067 C.3       10 UNK        -0.1985 
     62 C          33.1512    2.4940   -8.6741 C.2       10 UNK         0.4970 
     63 O          34.3243    2.8308   -8.8480 O.2       10 UNK        -0.4914 
     64 N          32.6439    2.1404   -7.4847 N.am      11 UNK        -0.4285 
     65 CA         33.3959    2.1687   -6.2166 C.3       11 UNK         0.1007 
     66 C          33.7191    3.6006   -5.6953 C.2       11 UNK         0.5703 
     67 N          33.0609    4.6503   -6.1745 N.am      11 UNK        -0.7361 
     68 O          34.5891    3.7606   -4.8425 O.2       11 UNK        -0.4986 
     69 C69        32.7093    1.3346   -5.1020 C.3       12 UNK        -0.0947 
     70 S70        32.5535   -0.4360   -5.5006 S.3       12 UNK        -0.2240 
     71 C71        31.6868   -1.0141   -4.0024 C.3       12 UNK         0.0194 
     72 H72        23.1836   -3.4388    0.0545 H         1 UNK         0.0906 
     73 H73        23.7095   -4.9113   -0.7635 H         1 UNK         0.0906 
     74 H74        23.3928   -4.9326    0.9722 H         1 UNK         0.0906 
     75 H75        25.8996   -4.8827   -1.2296 H         1 UNK         0.3140 
     76 H76        27.8738   -4.1540    0.7441 H         1 UNK         0.1085 
     77 H77        28.0188   -6.0510   -1.0348 H         1 UNK         0.0836 
     78 H78        28.4170   -4.8060   -2.1807 H         1 UNK         0.0836 
     79 H79        32.1685   -5.6875   -1.7704 H         1 UNK         0.0731 
     80 H80        30.8199   -6.6538   -2.3119 H         1 UNK         0.0731 
     81 H81        31.9807   -3.0650   -2.2156 H         1 UNK         0.1312 
     82 H82        30.2103   -2.1327   -6.0032 H         1 UNK         0.1406 
     83 H83        29.7382   -6.0458   -4.3346 H         1 UNK         0.1631 
     84 H84        29.4634   -5.4798   -6.9113 H         1 UNK         0.0717 
     85 H85        29.1156   -3.8223   -7.3019 H         1 UNK         0.0717 
     86 H86        25.8317   -3.4282   -4.8789 H         1 UNK         0.0934 
     87 H87        27.4491   -2.8546   -4.6904 H         1 UNK         0.0934 
     88 H88        26.3276   -2.7256   -7.5075 H         1 UNK         0.0739 
     89 H89        24.8578   -1.4306   -5.3958 H         1 UNK         0.3093 
     90 H90        23.3731    1.0400   -7.4698 H         1 UNK         0.0818 
     91 H91        21.2237   -0.0462   -6.8808 H         1 UNK         0.0819 
     92 H92        22.0379   -0.9700   -8.1310 H         1 UNK         0.0819 
     93 H93        22.0581   -1.5457   -6.4700 H         1 UNK         0.0819 
     94 H94        22.7209    0.2427   -4.8384 H         1 UNK         0.3041 
     95 H95        24.3562    2.7499   -3.3218 H         1 UNK         0.0784 
     96 H96        22.1297    1.6158   -3.2341 H         1 UNK         0.0793 
     97 H97        22.9031    0.0996   -2.7634 H         1 UNK         0.0793 
     98 H98        22.9672    1.4973   -1.7022 H         1 UNK         0.0793 
     99 H99        25.9438    1.8111   -2.0890 H         1 UNK         0.3024 
    100 H100       27.9993   -0.2565   -2.1723 H         1 UNK         0.1171 
    101 H101       26.0292    0.3193    0.1289 H         1 UNK         0.0786 
    102 H102       27.1308    1.4861   -0.6012 H         1 UNK         0.0786 
    103 H103       27.7676    0.1625    0.3338 H         1 UNK         0.0786 
    104 H104       26.1586   -2.3338   -1.6353 H         1 UNK         0.2977 
    105 H105       27.0313   -0.1357   -5.1524 H         1 UNK         0.3127 
    106 H106       29.7447    0.3150   -5.9213 H         1 UNK         0.0770 
    107 H107       28.9434    1.1275   -3.7476 H         1 UNK         0.0814 
    108 H108       27.7284    2.1499   -4.5152 H         1 UNK         0.0814 
    109 H109       29.4326    2.5113   -4.7014 H         1 UNK         0.0814 
    110 H110       26.6770    1.7532   -7.0192 H         1 UNK         0.2983 
    111 H111       27.7885    3.6101   -8.8695 H         1 UNK         0.0947 
    112 H112       25.4845    3.6499   -9.8153 H         1 UNK         0.0806 
    113 H113       25.4338    3.7137   -8.0598 H         1 UNK         0.0806 
    114 H114       25.0581    2.2111   -8.8999 H         1 UNK         0.0806 
    115 H115       26.6874    0.2072   -9.3247 H         1 UNK         0.3000 
    116 H116       27.2244    0.0919  -12.1182 H         1 UNK         0.0850 
    117 H117       26.9613   -2.3789  -11.7868 H         1 UNK         0.0810 
    118 H118       25.6727   -1.4742  -11.0085 H         1 UNK         0.0810 
    119 H119       26.9813   -2.1506  -10.0425 H         1 UNK         0.0810 
    120 H120       29.1852   -0.9976   -9.2968 H         1 UNK         0.3040 
    121 H121       31.3830   -1.9260  -10.9455 H         1 UNK         0.0766 
    122 H122       32.4706   -2.3112   -8.7311 H         1 UNK         0.0812 
    123 H123       30.8350   -2.9521   -8.7490 H         1 UNK         0.0812 
    124 H124       31.1791   -1.4235   -7.9373 H         1 UNK         0.0812 
    125 H125       30.5203    1.1698   -9.6824 H         1 UNK         0.3205 
    126 H126       31.3916    3.1877   -9.6386 H         1 UNK         0.0754 
    127 H127       33.2026    3.8822  -11.1558 H         1 UNK         0.0769 
    128 H128       32.0779    2.8416  -12.0146 H         1 UNK         0.0769 
    129 H129       33.6373    2.2132  -11.4836 H         1 UNK         0.0769 
    130 H130       31.6548    1.9159   -7.4301 H         1 UNK         0.2981 
    131 H131       34.3641    1.7041   -6.4131 H         1 UNK         0.0541 
    132 H132       32.3414    4.5303   -6.8687 H         1 UNK         0.3459 
    133 H133       33.2840    5.5710   -5.8310 H         1 UNK         0.3459 
    134 H134       31.7177    1.7356   -4.8904 H         1 UNK         0.0612 
    135 H135       33.2733    1.4041   -4.1697 H         1 UNK         0.0612 
    136 H136       32.3640   -0.9139   -3.1528 H         1 UNK         0.0624 
    137 H137       30.8377   -0.3624   -3.7987 H         1 UNK         0.0624 
@<TRIPOS>BOND
     1    1    2 1    
     2    1   72 1    
     3    1   73 1    
     4    1   74 1    
     5    2    3 2    
     6    2    4 am   BACKBONE|DICT|INTERRES
     7    4    5 1    
     8    4   75 1    
     9    5    6 1    
    10    5   35 1    
    11    5   76 1    
    12    6    7 1    
    13    6   77 1    
    14    6   78 1    
    15    7    8 1    
    16    8    9 1    
    17    8   79 1    
    18    8   80 1    
    19    9   10 ar   
    20    9   14 ar   
    21   10   11 ar   
    22   10   81 1    
    23   11   12 ar   
    24   11   71 1    
    25   12   13 ar   
    26   12   82 1    
    27   13   14 ar   
    28   13   15 1    
    29   14   83 1    
    30   15   16 1    
    31   15   84 1    
    32   15   85 1    
    33   16   17 1    
    34   17   18 1    
    35   17   86 1    
    36   17   87 1    
    37   18   19 1    
    38   18   37 1    
    39   18   88 1    
    40   19   20 am   BACKBONE|DICT|INTERRES
    41   19   89 1    
    42   20   21 2    
    43   20   22 1    
    44   22   23 1    
    45   22   24 1    
    46   22   90 1    
    47   23   91 1    
    48   23   92 1    
    49   23   93 1    
    50   24   25 am   BACKBONE|DICT|INTERRES
    51   24   94 1    
    52   25   26 2    
    53   25   27 1    
    54   27   28 1    
    55   27   29 1    
    56   27   95 1    
    57   28   96 1    
    58   28   97 1    
    59   28   98 1    
    60   29   30 am   BACKBONE|DICT|INTERRES
    61   29   99 1    
    62   30   31 2    
    63   30   32 1    
    64   32   33 1    
    65   32   34 1    
    66   32  100 1    
    67   33  101 1    
    68   33  102 1    
    69   33  103 1    
    70   34   35 am   BACKBONE|DICT|INTERRES
    71   34  104 1    
    72   35   36 2    
    73   37   38 2    
    74   37   39 am   BACKBONE|DICT|INTERRES
    75   39   40 1    
    76   39  105 1    
    77   40   41 1    
    78   40   42 1    
    79   40  106 1    
    80   41  107 1    
    81   41  108 1    
    82   41  109 1    
    83   42   43 2    
    84   42   44 am   BACKBONE|DICT|INTERRES
    85   44   45 1    
    86   44  110 1    
    87   45   46 1    
    88   45   47 1    
    89   45  111 1    
    90   46  112 1    
    91   46  113 1    
    92   46  114 1    
    93   47   48 2    
    94   47   49 am   BACKBONE|DICT|INTERRES
    95   49   50 1    
    96   49  115 1    
    97   50   51 1    
    98   50   52 1    
    99   50  116 1    
   100   51  117 1    
   101   51  118 1    
   102   51  119 1    
   103   52   53 2    
   104   52   54 am   BACKBONE|DICT|INTERRES
   105   54   55 1    
   106   54  120 1    
   107   55   56 1    
   108   55   57 1    
   109   55  121 1    
   110   56  122 1    
   111   56  123 1    
   112   56  124 1    
   113   57   58 2    
   114   57   59 am   BACKBONE|DICT|INTERRES
   115   59   60 1    
   116   59  125 1    
   117   60   61 1    
   118   60   62 1    
   119   60  126 1    
   120   61  127 1    
   121   61  128 1    
   122   61  129 1    
   123   62   63 2    
   124   62   64 am   BACKBONE|DICT|INTERRES
   125   64   65 1    
   126   64  130 1    
   127   65   66 1    
   128   65   69 1    
   129   65  131 1    
   130   66   67 am   BACKBONE|DICT|INTERRES
   131   66   68 2    
   132   67  132 1    
   133   67  133 1    
   134   69   70 1    
   135   69  134 1    
   136   69  135 1    
   137   70   71 1    
   138   71  136 1    
   139   71  137 1    
@<TRIPOS>SUBSTRUCTURE
     1 UNK         1 GROUP             0       ****    0 ROOT    
