@<TRIPOS>MOLECULE
3R137
137   139    1
SMALL
USER_CHARGES


@<TRIPOS>ATOM
      1 CA         25.3115   -5.4450   -0.4430 C.3       0 UNK        -0.2020 
      2 C          26.5934   -5.0947   -1.1933 C.2       0 UNK         0.4855 
      3 O          26.9085   -5.7395   -2.1911 O.2       0 UNK        -0.5197 
      4 N          27.3718   -4.0929   -0.7624 N.am      1 UNK        -0.4892 
      5 CA         27.1278   -3.1653    0.3515 C.3       1 UNK         0.0835 
      6 C6         28.4269   -2.4212    0.7610 C.3       12 UNK        -0.0855 
      7 S7         29.3120   -1.6638   -0.6520 S.3       12 UNK        -0.2931 
      8 C8         30.6342   -2.8822   -0.9344 C.3       12 UNK         0.0378 
      9 C9         30.9167   -3.0635   -2.4176 C.ar      12 UNK        -0.0802 
     10 C10        31.8870   -2.2817   -3.0501 C.ar      12 UNK        -0.0944 
     11 C11        32.2054   -2.4935   -4.3953 C.ar      12 UNK        -0.0787 
     12 C12        31.5305   -3.4891   -5.1114 C.ar      12 UNK        -0.0862 
     13 C13        30.5400   -4.2617   -4.4962 C.ar      12 UNK        -0.0733 
     14 C14        30.2413   -4.0463   -3.1483 C.ar      12 UNK        -0.0832 
     15 C15        29.8291   -5.3681   -5.2658 C.3       12 UNK         0.0240 
     16 S16        28.8791   -4.7495   -6.6901 S.3       12 UNK        -0.2522 
     17 C17        27.5338   -3.8122   -5.8876 C.3       12 UNK        -0.0967 
     18 CA         27.0561   -2.6406   -6.7821 C.3       5 UNK         0.0660 
     19 N          25.7202   -2.1724   -6.4242 N.am      5 UNK        -0.4015 
     20 C          24.6702   -2.1637   -7.2579 C.2       4 UNK         0.4946 
     21 O          24.6470   -2.7502   -8.3405 O.2       4 UNK        -0.5353 
     22 CA         23.4305   -1.3446   -6.8428 C.3       4 UNK         0.0277 
     23 CB         22.3150   -2.2778   -6.3434 C.3       4 UNK        -0.1981 
     24 N          23.6828   -0.3190   -5.8261 N.am      4 UNK        -0.4209 
     25 C          24.5751    0.6791   -5.9103 C.2       3 UNK         0.4942 
     26 O          25.2750    0.8975   -6.8991 O.2       3 UNK        -0.5208 
     27 CA         24.7938    1.5173   -4.6382 C.3       3 UNK         0.0250 
     28 CB         23.8978    2.7656   -4.6584 C.3       3 UNK        -0.1990 
     29 N          24.5678    0.7779   -3.3896 N.am      3 UNK        -0.4232 
     30 C          25.1785   -0.3597   -3.0275 C.2       2 UNK         0.4993 
     31 O          26.0188   -0.9492   -3.7184 O.2       2 UNK        -0.5286 
     32 CA         24.7125   -0.9737   -1.7059 C.3       2 UNK         0.0209 
     33 CB         23.3944   -1.7469   -1.8986 C.3       2 UNK        -0.1931 
     34 N          25.7421   -1.8832   -1.2227 N.am      2 UNK        -0.4546 
     35 C          25.9841   -2.1708    0.0608 C.2       1 UNK         0.5154 
     36 O          25.3345   -1.7064    0.9988 O.2       1 UNK        -0.5181 
     37 C          28.0315   -1.4500   -6.7663 C.2       5 UNK         0.5014 
     38 O          28.6636   -1.1820   -7.7873 O.2       5 UNK        -0.5248 
     39 N          28.1310   -0.7488   -5.6267 N.am      6 UNK        -0.4434 
     40 CA         29.1752    0.2428   -5.3540 C.3       6 UNK         0.0363 
     41 CB         29.0933    0.6797   -3.8847 C.3       6 UNK        -0.1936 
     42 C          29.1743    1.4674   -6.2830 C.2       6 UNK         0.5081 
     43 O          30.2494    1.9203   -6.6797 O.2       6 UNK        -0.5248 
     44 N          27.9876    1.9885   -6.6170 N.am      7 UNK        -0.4718 
     45 CA         27.8360    3.1188   -7.5362 C.3       7 UNK         0.0273 
     46 CB         26.6022    3.9535   -7.1579 C.3       7 UNK        -0.1935 
     47 C          27.7448    2.6338   -8.9881 C.2       7 UNK         0.5018 
     48 O          28.2886    3.2934   -9.8724 O.2       7 UNK        -0.5186 
     49 N          27.0967    1.4791   -9.2032 N.am      8 UNK        -0.4240 
     50 CA         26.9472    0.8226  -10.5050 C.3       8 UNK         0.0235 
     51 CB         26.0383   -0.4066  -10.3577 C.3       8 UNK        -0.2000 
     52 C          28.2896    0.4349  -11.1495 C.2       8 UNK         0.4941 
     53 O          28.4884    0.7023  -12.3350 O.2       8 UNK        -0.5273 
     54 N          29.1948   -0.1544  -10.3558 N.am      9 UNK        -0.4262 
     55 CA         30.5652   -0.4816  -10.7612 C.3       9 UNK         0.0264 
     56 CB         31.0531   -1.6907   -9.9463 C.3       9 UNK        -0.1955 
     57 C          31.5377    0.7053  -10.6141 C.2       9 UNK         0.5031 
     58 O          32.6751    0.5954  -11.0745 O.2       9 UNK        -0.5390 
     59 N          31.0828    1.8032   -9.9882 N.am      10 UNK        -0.4204 
     60 CA         31.8083    3.0462   -9.6991 C.3       10 UNK         0.0237 
     61 CB         32.0966    3.8227  -11.0015 C.3       10 UNK        -0.1985 
     62 C          33.0659    2.8040   -8.8435 C.2       10 UNK         0.4970 
     63 O          34.1651    3.2133   -9.2240 O.2       10 UNK        -0.4914 
     64 N          32.8702    2.1239   -7.7104 N.am      11 UNK        -0.4285 
     65 CA         33.9198    1.7037   -6.7722 C.3       11 UNK         0.1007 
     66 C          33.6500    2.1164   -5.2976 C.2       11 UNK         0.5703 
     67 N          32.4678    2.6070   -4.9442 N.am      11 UNK        -0.7361 
     68 O          34.5445    2.0146   -4.4613 O.2       11 UNK        -0.4986 
     69 C69        34.2340    0.1918   -6.9245 C.3       12 UNK        -0.0947 
     70 S70        32.7962   -0.8851   -6.5937 S.3       12 UNK        -0.2240 
     71 C71        33.3190   -1.6828   -5.0460 C.3       12 UNK         0.0194 
     72 H72        25.4959   -5.5713    0.6257 H         1 UNK         0.0906 
     73 H73        24.5551   -4.6705   -0.5850 H         1 UNK         0.0906 
     74 H74        24.8996   -6.3843   -0.8174 H         1 UNK         0.0906 
     75 H75        28.2025   -3.8714   -1.2905 H         1 UNK         0.3140 
     76 H76        26.8107   -3.7510    1.2168 H         1 UNK         0.1085 
     77 H77        28.2133   -1.6404    1.4944 H         1 UNK         0.0836 
     78 H78        29.0946   -3.1123    1.2779 H         1 UNK         0.0836 
     79 H79        30.3684   -3.8471   -0.5002 H         1 UNK         0.0731 
     80 H80        31.5353   -2.5565   -0.4124 H         1 UNK         0.0731 
     81 H81        32.4131   -1.5252   -2.4838 H         1 UNK         0.1312 
     82 H82        31.7787   -3.6662   -6.1492 H         1 UNK         0.1406 
     83 H83        29.4999   -4.6666   -2.6646 H         1 UNK         0.1631 
     84 H84        29.1590   -5.9326   -4.6150 H         1 UNK         0.0717 
     85 H85        30.5744   -6.0784   -5.6261 H         1 UNK         0.0717 
     86 H86        26.7127   -4.5108   -5.7185 H         1 UNK         0.0934 
     87 H87        27.8381   -3.4657   -4.8982 H         1 UNK         0.0934 
     88 H88        27.0389   -3.0027   -7.8126 H         1 UNK         0.0739 
     89 H89        25.6443   -1.6754   -5.5429 H         1 UNK         0.3093 
     90 H90        23.0760   -0.8303   -7.7384 H         1 UNK         0.0818 
     91 H91        21.3950   -1.7280   -6.1441 H         1 UNK         0.0819 
     92 H92        22.0786   -3.0383   -7.0892 H         1 UNK         0.0819 
     93 H93        22.6029   -2.7976   -5.4286 H         1 UNK         0.0819 
     94 H94        23.1631   -0.4076   -4.9657 H         1 UNK         0.3041 
     95 H95        25.8349    1.8441   -4.6368 H         1 UNK         0.0784 
     96 H96        24.0376    3.3385   -5.5755 H         1 UNK         0.0793 
     97 H97        22.8402    2.5055   -4.5985 H         1 UNK         0.0793 
     98 H98        24.1275    3.4322   -3.8268 H         1 UNK         0.0793 
     99 H99        23.8843    1.1752   -2.7603 H         1 UNK         0.3024 
    100 H100       24.5692   -0.1676   -0.9821 H         1 UNK         0.1171 
    101 H101       22.5981   -1.0922   -2.2548 H         1 UNK         0.0786 
    102 H102       23.5045   -2.5551   -2.6232 H         1 UNK         0.0786 
    103 H103       23.0521   -2.1854   -0.9610 H         1 UNK         0.0786 
    104 H104       26.3572   -2.2475   -1.9397 H         1 UNK         0.2977 
    105 H105       27.5173   -0.9739   -4.8475 H         1 UNK         0.3127 
    106 H106       30.1325   -0.2621   -5.4939 H         1 UNK         0.0770 
    107 H107       28.1363    1.1475   -3.6521 H         1 UNK         0.0814 
    108 H108       29.8788    1.3975   -3.6449 H         1 UNK         0.0814 
    109 H109       29.2220   -0.1717   -3.2172 H         1 UNK         0.0814 
    110 H110       27.1390    1.5148   -6.3323 H         1 UNK         0.2983 
    111 H111       28.7093    3.7706   -7.4553 H         1 UNK         0.0947 
    112 H112       26.5662    4.8718   -7.7453 H         1 UNK         0.0806 
    113 H113       26.6212    4.2416   -6.1068 H         1 UNK         0.0806 
    114 H114       25.6720    3.4189   -7.3469 H         1 UNK         0.0806 
    115 H115       26.6354    1.0412   -8.4126 H         1 UNK         0.3000 
    116 H116       26.4539    1.5329  -11.1718 H         1 UNK         0.0850 
    117 H117       25.8657   -0.8836  -11.3233 H         1 UNK         0.0810 
    118 H118       25.0640   -0.1361   -9.9500 H         1 UNK         0.0810 
    119 H119       26.4791   -1.1557   -9.6992 H         1 UNK         0.0810 
    120 H120       28.9394   -0.3962   -9.3973 H         1 UNK         0.3040 
    121 H121       30.5651   -0.7682  -11.8149 H         1 UNK         0.0766 
    122 H122       31.0776   -1.4700   -8.8797 H         1 UNK         0.0812 
    123 H123       32.0611   -1.9852  -10.2413 H         1 UNK         0.0812 
    124 H124       30.4052   -2.5553  -10.0912 H         1 UNK         0.0812 
    125 H125       30.1233    1.7843   -9.6718 H         1 UNK         0.3205 
    126 H126       31.1381    3.6582   -9.0933 H         1 UNK         0.0754 
    127 H127       32.5517    4.7903  -10.7867 H         1 UNK         0.0769 
    128 H128       31.1784    4.0129  -11.5576 H         1 UNK         0.0769 
    129 H129       32.7790    3.2796  -11.6562 H         1 UNK         0.0769 
    130 H130       31.9217    1.8641   -7.4484 H         1 UNK         0.2981 
    131 H131       34.8375    2.2374   -7.0246 H         1 UNK         0.0541 
    132 H132       31.6987    2.6244   -5.6039 H         1 UNK         0.3459 
    133 H133       32.3201    2.8872   -3.9885 H         1 UNK         0.3459 
    134 H134       35.0714   -0.0936   -6.2854 H         1 UNK         0.0612 
    135 H135       34.5652   -0.0074   -7.9447 H         1 UNK         0.0612 
    136 H136       33.6785   -0.9131   -4.3611 H         1 UNK         0.0624 
    137 H137       34.1651   -2.3399   -5.2510 H         1 UNK         0.0624 
@<TRIPOS>BOND
     1    1    2 1    
     2    1   72 1    
     3    1   73 1    
     4    1   74 1    
     5    2    3 2    
     6    2    4 am   BACKBONE|DICT|INTERRES
     7    4    5 1    
     8    4   75 1    
     9    5    6 1    
    10    5   35 1    
    11    5   76 1    
    12    6    7 1    
    13    6   77 1    
    14    6   78 1    
    15    7    8 1    
    16    8    9 1    
    17    8   79 1    
    18    8   80 1    
    19    9   10 ar   
    20    9   14 ar   
    21   10   11 ar   
    22   10   81 1    
    23   11   12 ar   
    24   11   71 1    
    25   12   13 ar   
    26   12   82 1    
    27   13   14 ar   
    28   13   15 1    
    29   14   83 1    
    30   15   16 1    
    31   15   84 1    
    32   15   85 1    
    33   16   17 1    
    34   17   18 1    
    35   17   86 1    
    36   17   87 1    
    37   18   19 1    
    38   18   37 1    
    39   18   88 1    
    40   19   20 am   BACKBONE|DICT|INTERRES
    41   19   89 1    
    42   20   21 2    
    43   20   22 1    
    44   22   23 1    
    45   22   24 1    
    46   22   90 1    
    47   23   91 1    
    48   23   92 1    
    49   23   93 1    
    50   24   25 am   BACKBONE|DICT|INTERRES
    51   24   94 1    
    52   25   26 2    
    53   25   27 1    
    54   27   28 1    
    55   27   29 1    
    56   27   95 1    
    57   28   96 1    
    58   28   97 1    
    59   28   98 1    
    60   29   30 am   BACKBONE|DICT|INTERRES
    61   29   99 1    
    62   30   31 2    
    63   30   32 1    
    64   32   33 1    
    65   32   34 1    
    66   32  100 1    
    67   33  101 1    
    68   33  102 1    
    69   33  103 1    
    70   34   35 am   BACKBONE|DICT|INTERRES
    71   34  104 1    
    72   35   36 2    
    73   37   38 2    
    74   37   39 am   BACKBONE|DICT|INTERRES
    75   39   40 1    
    76   39  105 1    
    77   40   41 1    
    78   40   42 1    
    79   40  106 1    
    80   41  107 1    
    81   41  108 1    
    82   41  109 1    
    83   42   43 2    
    84   42   44 am   BACKBONE|DICT|INTERRES
    85   44   45 1    
    86   44  110 1    
    87   45   46 1    
    88   45   47 1    
    89   45  111 1    
    90   46  112 1    
    91   46  113 1    
    92   46  114 1    
    93   47   48 2    
    94   47   49 am   BACKBONE|DICT|INTERRES
    95   49   50 1    
    96   49  115 1    
    97   50   51 1    
    98   50   52 1    
    99   50  116 1    
   100   51  117 1    
   101   51  118 1    
   102   51  119 1    
   103   52   53 2    
   104   52   54 am   BACKBONE|DICT|INTERRES
   105   54   55 1    
   106   54  120 1    
   107   55   56 1    
   108   55   57 1    
   109   55  121 1    
   110   56  122 1    
   111   56  123 1    
   112   56  124 1    
   113   57   58 2    
   114   57   59 am   BACKBONE|DICT|INTERRES
   115   59   60 1    
   116   59  125 1    
   117   60   61 1    
   118   60   62 1    
   119   60  126 1    
   120   61  127 1    
   121   61  128 1    
   122   61  129 1    
   123   62   63 2    
   124   62   64 am   BACKBONE|DICT|INTERRES
   125   64   65 1    
   126   64  130 1    
   127   65   66 1    
   128   65   69 1    
   129   65  131 1    
   130   66   67 am   BACKBONE|DICT|INTERRES
   131   66   68 2    
   132   67  132 1    
   133   67  133 1    
   134   69   70 1    
   135   69  134 1    
   136   69  135 1    
   137   70   71 1    
   138   71  136 1    
   139   71  137 1    
@<TRIPOS>SUBSTRUCTURE
     1 UNK         1 GROUP             0       ****    0 ROOT    
