@<TRIPOS>MOLECULE
3R137
137   139    1
SMALL
USER_CHARGES


@<TRIPOS>ATOM
      1 CA         28.1769    0.7235    3.4278 C.3       0 UNK        -0.2020 
      2 C          28.1459   -0.3055    2.3074 C.2       0 UNK         0.4855 
      3 O          28.0840   -1.5032    2.5845 O.2       0 UNK        -0.5197 
      4 N          28.1902    0.1577    1.0494 N.am      1 UNK        -0.4892 
      5 CA         28.1512   -0.6503   -0.1784 C.3       1 UNK         0.0835 
      6 C6         29.4046   -1.5542   -0.3436 C.3       12 UNK        -0.0855 
      7 S7         29.8005   -1.8578   -2.0980 S.3       12 UNK        -0.2931 
      8 C8         29.8999   -3.6772   -2.1365 C.3       12 UNK         0.0378 
      9 C9         30.2406   -4.1627   -3.5373 C.ar      12 UNK        -0.0802 
     10 C10        31.4918   -3.8673   -4.0869 C.ar      12 UNK        -0.0944 
     11 C11        31.7844   -4.2071   -5.4099 C.ar      12 UNK        -0.0787 
     12 C12        30.8394   -4.9018   -6.1663 C.ar      12 UNK        -0.0862 
     13 C13        29.5835   -5.1993   -5.6303 C.ar      12 UNK        -0.0733 
     14 C14        29.2931   -4.8455   -4.3080 C.ar      12 UNK        -0.0832 
     15 C15        28.5073   -5.7922   -6.5289 C.3       12 UNK         0.0240 
     16 S16        27.3946   -4.5230   -7.2470 S.3       12 UNK        -0.2522 
     17 C17        28.3572   -2.9687   -7.1313 C.3       12 UNK        -0.0967 
     18 CA         27.6679   -1.7252   -7.7359 C.3       5 UNK         0.0660 
     19 N          26.2590   -1.6312   -7.3403 N.am      5 UNK        -0.4015 
     20 C          25.3995   -0.6358   -7.6012 C.2       4 UNK         0.4946 
     21 O          25.6847    0.3549   -8.2749 O.2       4 UNK        -0.5353 
     22 CA         23.9973   -0.7350   -6.9727 C.3       4 UNK         0.0277 
     23 CB         22.9633   -1.1166   -8.0437 C.3       4 UNK        -0.1981 
     24 N          23.9013   -1.6739   -5.8459 N.am      4 UNK        -0.4209 
     25 C          24.5729   -1.5687   -4.6899 C.2       3 UNK         0.4942 
     26 O          25.3777   -0.6662   -4.4412 O.2       3 UNK        -0.5208 
     27 CA         24.3712   -2.7197   -3.6915 C.3       3 UNK         0.0250 
     28 CB         25.3459   -3.8666   -4.0080 C.3       3 UNK        -0.1990 
     29 N          24.5941   -2.2884   -2.3142 N.am      3 UNK        -0.4232 
     30 C          23.7981   -1.4808   -1.6063 C.2       2 UNK         0.4993 
     31 O          22.7132   -1.0636   -2.0146 O.2       2 UNK        -0.5286 
     32 CA         24.2863   -1.0600   -0.2062 C.3       2 UNK         0.0209 
     33 CB         23.9534   -2.1380    0.8443 C.3       2 UNK        -0.1931 
     34 N          25.7026   -0.6594   -0.1341 N.am      2 UNK        -0.4546 
     35 C          26.8066   -1.3991   -0.3308 C.2       1 UNK         0.5154 
     36 O          26.7836   -2.5986   -0.6156 O.2       1 UNK        -0.5181 
     37 C          28.4946   -0.4766   -7.3617 C.2       5 UNK         0.5014 
     38 O          29.4099   -0.1145   -8.1013 O.2       5 UNK        -0.5248 
     39 N          28.1398    0.1806   -6.2472 N.am      6 UNK        -0.4434 
     40 CA         28.7423    1.4340   -5.7895 C.3       6 UNK         0.0363 
     41 CB         28.1646    1.7950   -4.4123 C.3       6 UNK        -0.1936 
     42 C          28.5783    2.6048   -6.7795 C.2       6 UNK         0.5081 
     43 O          29.4010    3.5196   -6.7643 O.2       6 UNK        -0.5248 
     44 N          27.5462    2.5481   -7.6321 N.am      7 UNK        -0.4718 
     45 CA         27.3273    3.4756   -8.7400 C.3       7 UNK         0.0273 
     46 CB         25.8642    3.9491   -8.7262 C.3       7 UNK        -0.1935 
     47 C          27.6675    2.8108  -10.0820 C.2       7 UNK         0.5018 
     48 O          28.3652    3.4190  -10.8927 O.2       7 UNK        -0.5186 
     49 N          27.1692    1.5839  -10.2977 N.am      8 UNK        -0.4240 
     50 CA         27.2474    0.8604  -11.5704 C.3       8 UNK         0.0235 
     51 CB         26.2829   -0.3367  -11.5399 C.3       8 UNK        -0.2000 
     52 C          28.6646    0.4064  -11.9560 C.2       8 UNK         0.4941 
     53 O          29.0213    0.4987  -13.1312 O.2       8 UNK        -0.5273 
     54 N          29.4414   -0.0693  -10.9743 N.am      9 UNK        -0.4262 
     55 CA         30.8353   -0.4951  -11.1416 C.3       9 UNK         0.0264 
     56 CB         31.0097   -1.8881  -10.5096 C.3       9 UNK        -0.1955 
     57 C          31.8219    0.5135  -10.5246 C.2       9 UNK         0.5031 
     58 O          33.0310    0.3296  -10.6709 O.2       9 UNK        -0.5390 
     59 N          31.2959    1.5477   -9.8490 N.am      10 UNK        -0.4204 
     60 CA         32.0047    2.5998   -9.1130 C.3       10 UNK         0.0237 
     61 CB         32.8227    3.4901  -10.0734 C.3       10 UNK        -0.1985 
     62 C          32.8350    2.0627   -7.9287 C.2       10 UNK         0.4970 
     63 O          33.8839    2.6297   -7.6149 O.2       10 UNK        -0.4914 
     64 N          32.3608    0.9809   -7.2949 N.am      11 UNK        -0.4285 
     65 CA         32.9878    0.3675   -6.1143 C.3       11 UNK         0.1007 
     66 C          32.9578    1.2835   -4.8578 C.2       11 UNK         0.5703 
     67 N          33.9179    1.1242   -3.9565 N.am      11 UNK        -0.7361 
     68 O          32.0651    2.1075   -4.6728 O.2       11 UNK        -0.4986 
     69 C69        32.3709   -1.0190   -5.8055 C.3       12 UNK        -0.0947 
     70 S70        32.7969   -2.2590   -7.0752 S.3       12 UNK        -0.2240 
     71 C71        33.0803   -3.7457   -6.0567 C.3       12 UNK         0.0194 
     72 H72        28.2376    1.7427    3.0468 H         1 UNK         0.0906 
     73 H73        27.2764    0.6423    4.0361 H         1 UNK         0.0906 
     74 H74        29.0391    0.5509    4.0714 H         1 UNK         0.0906 
     75 H75        28.2458    1.1570    0.9029 H         1 UNK         0.3140 
     76 H76        28.1666    0.0793   -0.9904 H         1 UNK         0.1085 
     77 H77        30.2769   -1.0630    0.0902 H         1 UNK         0.0836 
     78 H78        29.2956   -2.4926    0.2037 H         1 UNK         0.0836 
     79 H79        30.6646   -4.0175   -1.4367 H         1 UNK         0.0731 
     80 H80        28.9512   -4.0975   -1.7981 H         1 UNK         0.0731 
     81 H81        32.2130   -3.3151   -3.5002 H         1 UNK         0.1312 
     82 H82        31.0539   -5.1382   -7.1998 H         1 UNK         0.1406 
     83 H83        28.3122   -5.0514   -3.9021 H         1 UNK         0.1631 
     84 H84        27.9095   -6.5118   -5.9677 H         1 UNK         0.0717 
     85 H85        28.9680   -6.3531   -7.3436 H         1 UNK         0.0717 
     86 H86        29.3227   -3.1201   -7.6181 H         1 UNK         0.0934 
     87 H87        28.5670   -2.7908   -6.0743 H         1 UNK         0.0934 
     88 H88        27.6862   -1.8188   -8.8225 H         1 UNK         0.0739 
     89 H89        25.9177   -2.4132   -6.8016 H         1 UNK         0.3093 
     90 H90        23.7493    0.2589   -6.5945 H         1 UNK         0.0818 
     91 H91        21.9492   -1.0935   -7.6442 H         1 UNK         0.0819 
     92 H92        22.9935   -0.4186   -8.8819 H         1 UNK         0.0819 
     93 H93        23.1455   -2.1144   -8.4452 H         1 UNK         0.0819 
     94 H94        23.2736   -2.4562   -5.9691 H         1 UNK         0.3041 
     95 H95        23.3461   -3.0877   -3.7726 H         1 UNK         0.0784 
     96 H96        25.1708   -4.2711   -5.0056 H         1 UNK         0.0793 
     97 H97        26.3836   -3.5317   -3.9673 H         1 UNK         0.0793 
     98 H98        25.2329   -4.6907   -3.3033 H         1 UNK         0.0793 
     99 H99        25.4723   -2.5613   -1.8783 H         1 UNK         0.3024 
    100 H100       23.7162   -0.1669    0.0568 H         1 UNK         0.1171 
    101 H101       24.2267   -1.8107    1.8476 H         1 UNK         0.0786 
    102 H102       24.4710   -3.0770    0.6465 H         1 UNK         0.0786 
    103 H103       22.8843   -2.3544    0.8535 H         1 UNK         0.0786 
    104 H104       25.8492    0.3167    0.0842 H         1 UNK         0.2977 
    105 H105       27.3646   -0.1736   -5.7000 H         1 UNK         0.3127 
    106 H106       29.8118    1.2555   -5.6763 H         1 UNK         0.0770 
    107 H107       27.0857    1.9503   -4.4555 H         1 UNK         0.0814 
    108 H108       28.6149    2.7122   -4.0300 H         1 UNK         0.0814 
    109 H109       28.3626    1.0095   -3.6825 H         1 UNK         0.0814 
    110 H110       26.9247    1.7465   -7.5912 H         1 UNK         0.2983 
    111 H111       27.9660    4.3556   -8.6353 H         1 UNK         0.0947 
    112 H112       25.6674    4.6336   -9.5524 H         1 UNK         0.0806 
    113 H113       25.6317    4.4806   -7.8033 H         1 UNK         0.0806 
    114 H114       25.1644    3.1171   -8.8164 H         1 UNK         0.0806 
    115 H115       26.5959    1.1570   -9.5706 H         1 UNK         0.3000 
    116 H116       26.9050    1.5425  -12.3519 H         1 UNK         0.0850 
    117 H117       26.2895   -0.8681  -12.4926 H         1 UNK         0.0810 
    118 H118       25.2576   -0.0147  -11.3563 H         1 UNK         0.0810 
    119 H119       26.5494   -1.0545  -10.7646 H         1 UNK         0.0810 
    120 H120       29.0885   -0.0976  -10.0227 H         1 UNK         0.3040 
    121 H121       31.0852   -0.5746  -12.2014 H         1 UNK         0.0766 
    122 H122       32.0259   -2.2578  -10.6526 H         1 UNK         0.0812 
    123 H123       30.8210   -1.8756   -9.4364 H         1 UNK         0.0812 
    124 H124       30.3345   -2.6155  -10.9599 H         1 UNK         0.0812 
    125 H125       30.2889    1.5804   -9.7841 H         1 UNK         0.3205 
    126 H126       31.2311    3.2291   -8.6727 H         1 UNK         0.0754 
    127 H127       33.2276    4.3587   -9.5528 H         1 UNK         0.0769 
    128 H128       32.2044    3.8635  -10.8898 H         1 UNK         0.0769 
    129 H129       33.6646    2.9509  -10.5086 H         1 UNK         0.0769 
    130 H130       31.4899    0.5699   -7.6067 H         1 UNK         0.2981 
    131 H131       34.0404    0.2164   -6.3628 H         1 UNK         0.0541 
    132 H132       34.6531    0.4474   -4.0891 H         1 UNK         0.3459 
    133 H133       33.9101    1.6994   -3.1290 H         1 UNK         0.3459 
    134 H134       31.2844   -0.9567   -5.7195 H         1 UNK         0.0612 
    135 H135       32.7321   -1.3815   -4.8422 H         1 UNK         0.0612 
    136 H136       33.4790   -4.5397   -6.6896 H         1 UNK         0.0624 
    137 H137       33.8422   -3.5380   -5.3038 H         1 UNK         0.0624 
@<TRIPOS>BOND
     1    1    2 1    
     2    1   72 1    
     3    1   73 1    
     4    1   74 1    
     5    2    3 2    
     6    2    4 am   BACKBONE|DICT|INTERRES
     7    4    5 1    
     8    4   75 1    
     9    5    6 1    
    10    5   35 1    
    11    5   76 1    
    12    6    7 1    
    13    6   77 1    
    14    6   78 1    
    15    7    8 1    
    16    8    9 1    
    17    8   79 1    
    18    8   80 1    
    19    9   10 ar   
    20    9   14 ar   
    21   10   11 ar   
    22   10   81 1    
    23   11   12 ar   
    24   11   71 1    
    25   12   13 ar   
    26   12   82 1    
    27   13   14 ar   
    28   13   15 1    
    29   14   83 1    
    30   15   16 1    
    31   15   84 1    
    32   15   85 1    
    33   16   17 1    
    34   17   18 1    
    35   17   86 1    
    36   17   87 1    
    37   18   19 1    
    38   18   37 1    
    39   18   88 1    
    40   19   20 am   BACKBONE|DICT|INTERRES
    41   19   89 1    
    42   20   21 2    
    43   20   22 1    
    44   22   23 1    
    45   22   24 1    
    46   22   90 1    
    47   23   91 1    
    48   23   92 1    
    49   23   93 1    
    50   24   25 am   BACKBONE|DICT|INTERRES
    51   24   94 1    
    52   25   26 2    
    53   25   27 1    
    54   27   28 1    
    55   27   29 1    
    56   27   95 1    
    57   28   96 1    
    58   28   97 1    
    59   28   98 1    
    60   29   30 am   BACKBONE|DICT|INTERRES
    61   29   99 1    
    62   30   31 2    
    63   30   32 1    
    64   32   33 1    
    65   32   34 1    
    66   32  100 1    
    67   33  101 1    
    68   33  102 1    
    69   33  103 1    
    70   34   35 am   BACKBONE|DICT|INTERRES
    71   34  104 1    
    72   35   36 2    
    73   37   38 2    
    74   37   39 am   BACKBONE|DICT|INTERRES
    75   39   40 1    
    76   39  105 1    
    77   40   41 1    
    78   40   42 1    
    79   40  106 1    
    80   41  107 1    
    81   41  108 1    
    82   41  109 1    
    83   42   43 2    
    84   42   44 am   BACKBONE|DICT|INTERRES
    85   44   45 1    
    86   44  110 1    
    87   45   46 1    
    88   45   47 1    
    89   45  111 1    
    90   46  112 1    
    91   46  113 1    
    92   46  114 1    
    93   47   48 2    
    94   47   49 am   BACKBONE|DICT|INTERRES
    95   49   50 1    
    96   49  115 1    
    97   50   51 1    
    98   50   52 1    
    99   50  116 1    
   100   51  117 1    
   101   51  118 1    
   102   51  119 1    
   103   52   53 2    
   104   52   54 am   BACKBONE|DICT|INTERRES
   105   54   55 1    
   106   54  120 1    
   107   55   56 1    
   108   55   57 1    
   109   55  121 1    
   110   56  122 1    
   111   56  123 1    
   112   56  124 1    
   113   57   58 2    
   114   57   59 am   BACKBONE|DICT|INTERRES
   115   59   60 1    
   116   59  125 1    
   117   60   61 1    
   118   60   62 1    
   119   60  126 1    
   120   61  127 1    
   121   61  128 1    
   122   61  129 1    
   123   62   63 2    
   124   62   64 am   BACKBONE|DICT|INTERRES
   125   64   65 1    
   126   64  130 1    
   127   65   66 1    
   128   65   69 1    
   129   65  131 1    
   130   66   67 am   BACKBONE|DICT|INTERRES
   131   66   68 2    
   132   67  132 1    
   133   67  133 1    
   134   69   70 1    
   135   69  134 1    
   136   69  135 1    
   137   70   71 1    
   138   71  136 1    
   139   71  137 1    
@<TRIPOS>SUBSTRUCTURE
     1 UNK         1 GROUP             0       ****    0 ROOT    
