@<TRIPOS>MOLECULE
3R137
137   139    1
SMALL
USER_CHARGES


@<TRIPOS>ATOM
      1 CA         29.4601   -0.2684   -2.6147 C.3       0 UNK        -0.2020 
      2 C          30.0624   -0.6207   -1.2579 C.2       0 UNK         0.4855 
      3 O          30.8257    0.1730   -0.7116 O.2       0 UNK        -0.5197 
      4 N          29.7639   -1.7881   -0.6724 N.am      1 UNK        -0.4892 
      5 CA         28.8297   -2.8165   -1.1501 C.3       1 UNK         0.0835 
      6 C6         28.9877   -4.1471   -0.3680 C.3       12 UNK        -0.0855 
      7 S7         30.7187   -4.7213   -0.2456 S.3       12 UNK        -0.2931 
      8 C8         30.8469   -5.9037   -1.6260 C.3       12 UNK         0.0378 
      9 C9         30.8038   -5.2294   -2.9924 C.ar      12 UNK        -0.0802 
     10 C10        31.7475   -4.2517   -3.3331 C.ar      12 UNK        -0.0944 
     11 C11        31.7304   -3.6555   -4.5983 C.ar      12 UNK        -0.0787 
     12 C12        30.7791   -4.0670   -5.5331 C.ar      12 UNK        -0.0862 
     13 C13        29.8037   -5.0094   -5.1929 C.ar      12 UNK        -0.0733 
     14 C14        29.8285   -5.5978   -3.9254 C.ar      12 UNK        -0.0832 
     15 C15        28.6933   -5.3429   -6.1822 C.3       12 UNK         0.0240 
     16 S16        27.0990   -4.5787   -5.7163 S.3       12 UNK        -0.2522 
     17 C17        27.5501   -2.8243   -5.5145 C.3       12 UNK        -0.0967 
     18 CA         27.0139   -1.9048   -6.6327 C.3       5 UNK         0.0660 
     19 N          25.5739   -1.6551   -6.5055 N.am      5 UNK        -0.4015 
     20 C          24.8318   -0.8837   -7.3151 C.2       4 UNK         0.4946 
     21 O          25.2680   -0.2982   -8.3060 O.2       4 UNK        -0.5353 
     22 CA         23.3600   -0.6931   -6.9164 C.3       4 UNK         0.0277 
     23 CB         22.5334   -1.9455   -7.2510 C.3       4 UNK        -0.1981 
     24 N          23.2199   -0.3660   -5.4953 N.am      4 UNK        -0.4209 
     25 C          23.6206    0.7896   -4.9432 C.2       3 UNK         0.4942 
     26 O          24.0555    1.7434   -5.5887 O.2       3 UNK        -0.5208 
     27 CA         23.5600    0.8832   -3.4065 C.3       3 UNK         0.0250 
     28 CB         22.1886    1.4063   -2.9502 C.3       3 UNK        -0.1990 
     29 N          23.8549   -0.3860   -2.7273 N.am      3 UNK        -0.4232 
     30 C          25.0241   -1.0347   -2.8181 C.2       2 UNK         0.4993 
     31 O          25.9745   -0.6233   -3.4878 O.2       2 UNK        -0.5286 
     32 CA         25.1169   -2.3974   -2.1052 C.3       2 UNK         0.0209 
     33 CB         24.3466   -3.4691   -2.8963 C.3       2 UNK        -0.1931 
     34 N          26.5057   -2.8427   -1.9484 N.am      2 UNK        -0.4546 
     35 C          27.3690   -2.3187   -1.0698 C.2       1 UNK         0.5154 
     36 O          27.0459   -1.4923   -0.2119 O.2       1 UNK        -0.5181 
     37 C          27.8342   -0.6043   -6.6396 C.2       5 UNK         0.5014 
     38 O          28.7246   -0.4661   -7.4784 O.2       5 UNK        -0.5248 
     39 N          27.5106    0.3183   -5.7207 N.am      6 UNK        -0.4434 
     40 CA         28.1647    1.6200   -5.5715 C.3       6 UNK         0.0363 
     41 CB         27.4907    2.4135   -4.4406 C.3       6 UNK        -0.1936 
     42 C          28.1855    2.4558   -6.8616 C.2       6 UNK         0.5081 
     43 O          29.1772    3.1404   -7.1134 O.2       6 UNK        -0.5248 
     44 N          27.1103    2.3576   -7.6545 N.am      7 UNK        -0.4718 
     45 CA         26.9972    2.9627   -8.9774 C.3       7 UNK         0.0273 
     46 CB         25.5202    3.2741   -9.2709 C.3       7 UNK        -0.1935 
     47 C          27.5933    2.0579  -10.0670 C.2       7 UNK         0.5018 
     48 O          28.4021    2.5347  -10.8625 O.2       7 UNK        -0.5186 
     49 N          27.1803    0.7812  -10.0963 N.am      8 UNK        -0.4240 
     50 CA         27.5036   -0.1814  -11.1557 C.3       8 UNK         0.0235 
     51 CB         26.6573   -1.4525  -10.9782 C.3       8 UNK        -0.2000 
     52 C          28.9941   -0.5399  -11.2554 C.2       8 UNK         0.4941 
     53 O          29.5260   -0.5897  -12.3653 O.2       8 UNK        -0.5273 
     54 N          29.6405   -0.7770  -10.1072 N.am      9 UNK        -0.4262 
     55 CA         31.0741   -1.0673  -10.0117 C.3       9 UNK         0.0264 
     56 CB         31.3031   -2.0856   -8.8824 C.3       9 UNK        -0.1955 
     57 C          31.9078    0.2026   -9.7694 C.2       9 UNK         0.5031 
     58 O          33.1363    0.1224   -9.8009 O.2       9 UNK        -0.5390 
     59 N          31.2359    1.3354   -9.5085 N.am      10 UNK        -0.4204 
     60 CA         31.7835    2.6605   -9.1913 C.3       10 UNK         0.0237 
     61 CB         32.5942    3.2220  -10.3792 C.3       10 UNK        -0.1985 
     62 C          32.5660    2.7219   -7.8617 C.2       10 UNK         0.4970 
     63 O          33.2944    3.6910   -7.6404 O.2       10 UNK        -0.4914 
     64 N          32.4064    1.7093   -6.9979 N.am      11 UNK        -0.4285 
     65 CA         33.0661    1.6104   -5.6878 C.3       11 UNK         0.1007 
     66 C          32.3823    2.4215   -4.5476 C.2       11 UNK         0.5703 
     67 N          31.2730    3.1127   -4.7862 N.am      11 UNK        -0.7361 
     68 O          32.8876    2.4506   -3.4283 O.2       11 UNK        -0.4986 
     69 C69        33.3744    0.1365   -5.3046 C.3       12 UNK        -0.0947 
     70 S70        31.9119   -0.9382   -5.1296 S.3       12 UNK        -0.2240 
     71 C71        32.7261   -2.5613   -4.9602 C.3       12 UNK         0.0194 
     72 H72        28.4101   -0.0044   -2.5048 H         1 UNK         0.0906 
     73 H73        29.9778    0.5871   -3.0482 H         1 UNK         0.0906 
     74 H74        29.5417   -1.0924   -3.3217 H         1 UNK         0.0906 
     75 H75        30.1850   -1.9938    0.2220 H         1 UNK         0.3140 
     76 H76        29.0643   -3.0196   -2.1966 H         1 UNK         0.1085 
     77 H77        28.6148   -4.0338    0.6522 H         1 UNK         0.0836 
     78 H78        28.3816   -4.9337   -0.8219 H         1 UNK         0.0836 
     79 H79        31.7916   -6.4415   -1.5357 H         1 UNK         0.0731 
     80 H80        30.0602   -6.6537   -1.5296 H         1 UNK         0.0731 
     81 H81        32.4900   -3.9514   -2.6063 H         1 UNK         0.1312 
     82 H82        30.7613   -3.6048   -6.5094 H         1 UNK         0.1406 
     83 H83        29.0792   -6.3339   -3.6663 H         1 UNK         0.1631 
     84 H84        28.5665   -6.4249   -6.2378 H         1 UNK         0.0717 
     85 H85        28.9615   -5.0142   -7.1877 H         1 UNK         0.0717 
     86 H86        27.1878   -2.4997   -4.5440 H         1 UNK         0.0934 
     87 H87        28.6289   -2.7265   -5.4372 H         1 UNK         0.0934 
     88 H88        27.1788   -2.3912   -7.5961 H         1 UNK         0.0739 
     89 H89        25.1259   -2.0758   -5.7073 H         1 UNK         0.3093 
     90 H90        22.9639    0.1418   -7.4990 H         1 UNK         0.0818 
     91 H91        21.4743   -1.7862   -7.0472 H         1 UNK         0.0819 
     92 H92        22.6226   -2.1981   -8.3087 H         1 UNK         0.0819 
     93 H93        22.8573   -2.8164   -6.6799 H         1 UNK         0.0819 
     94 H94        22.8467   -1.0822   -4.8902 H         1 UNK         0.3041 
     95 H95        24.3199    1.6046   -3.0974 H         1 UNK         0.0784 
     96 H96        21.9576    2.3605   -3.4263 H         1 UNK         0.0793 
     97 H97        21.3851    0.7133   -3.2027 H         1 UNK         0.0793 
     98 H98        22.1649    1.5712   -1.8727 H         1 UNK         0.0793 
     99 H99        23.1147   -0.7822   -2.1653 H         1 UNK         0.3024 
    100 H100       24.6690   -2.2961   -1.1136 H         1 UNK         0.1171 
    101 H101       23.2923   -3.2086   -2.9971 H         1 UNK         0.0786 
    102 H102       24.3875   -4.4356   -2.3933 H         1 UNK         0.0786 
    103 H103       24.7480   -3.6013   -3.9013 H         1 UNK         0.0786 
    104 H104       26.8334   -3.5264   -2.6148 H         1 UNK         0.2977 
    105 H105       26.8054    0.0807   -5.0253 H         1 UNK         0.3127 
    106 H106       29.1989    1.4177   -5.2905 H         1 UNK         0.0770 
    107 H107       26.4541    2.6517   -4.6803 H         1 UNK         0.0814 
    108 H108       28.0092    3.3570   -4.2657 H         1 UNK         0.0814 
    109 H109       27.4936    1.8644   -3.5006 H         1 UNK         0.0814 
    110 H110       26.3566    1.7478   -7.3646 H         1 UNK         0.2983 
    111 H111       27.5480    3.9064   -8.9883 H         1 UNK         0.0947 
    112 H112       25.4046    3.7251  -10.2574 H         1 UNK         0.0806 
    113 H113       25.1138    3.9771   -8.5436 H         1 UNK         0.0806 
    114 H114       24.9010    2.3762   -9.2466 H         1 UNK         0.0806 
    115 H115       26.5139    0.4646   -9.3928 H         1 UNK         0.3000 
    116 H116       27.2188    0.2787  -12.1044 H         1 UNK         0.0850 
    117 H117       26.8591   -2.1723  -11.7727 H         1 UNK         0.0810 
    118 H118       25.5913   -1.2261  -11.0095 H         1 UNK         0.0810 
    119 H119       26.8652   -1.9462  -10.0286 H         1 UNK         0.0810 
    120 H120       29.1402   -0.6965   -9.2213 H         1 UNK         0.3040 
    121 H121       31.4249   -1.5152  -10.9438 H         1 UNK         0.0766 
    122 H122       32.3536   -2.3724   -8.8195 H         1 UNK         0.0812 
    123 H123       30.7268   -2.9962   -9.0458 H         1 UNK         0.0812 
    124 H124       31.0209   -1.6775   -7.9125 H         1 UNK         0.0812 
    125 H125       30.2265    1.2816   -9.5208 H         1 UNK         0.3205 
    126 H126       30.9198    3.3128   -9.0595 H         1 UNK         0.0754 
    127 H127       32.8610    4.2664  -10.2135 H         1 UNK         0.0769 
    128 H128       32.0195    3.1804  -11.3047 H         1 UNK         0.0769 
    129 H129       33.5226    2.6716  -10.5343 H         1 UNK         0.0769 
    130 H130       31.7713    0.9609   -7.2308 H         1 UNK         0.2981 
    131 H131       34.0433    2.0854   -5.7935 H         1 UNK         0.0541 
    132 H132       30.8493    3.1224   -5.7045 H         1 UNK         0.3459 
    133 H133       30.8655    3.6495   -4.0382 H         1 UNK         0.3459 
    134 H134       33.9439    0.0965   -4.3744 H         1 UNK         0.0612 
    135 H135       34.0227   -0.3008   -6.0657 H         1 UNK         0.0612 
    136 H136       33.2219   -2.8147   -5.8984 H         1 UNK         0.0624 
    137 H137       33.5075   -2.4917   -4.2019 H         1 UNK         0.0624 
@<TRIPOS>BOND
     1    1    2 1    
     2    1   72 1    
     3    1   73 1    
     4    1   74 1    
     5    2    3 2    
     6    2    4 am   BACKBONE|DICT|INTERRES
     7    4    5 1    
     8    4   75 1    
     9    5    6 1    
    10    5   35 1    
    11    5   76 1    
    12    6    7 1    
    13    6   77 1    
    14    6   78 1    
    15    7    8 1    
    16    8    9 1    
    17    8   79 1    
    18    8   80 1    
    19    9   10 ar   
    20    9   14 ar   
    21   10   11 ar   
    22   10   81 1    
    23   11   12 ar   
    24   11   71 1    
    25   12   13 ar   
    26   12   82 1    
    27   13   14 ar   
    28   13   15 1    
    29   14   83 1    
    30   15   16 1    
    31   15   84 1    
    32   15   85 1    
    33   16   17 1    
    34   17   18 1    
    35   17   86 1    
    36   17   87 1    
    37   18   19 1    
    38   18   37 1    
    39   18   88 1    
    40   19   20 am   BACKBONE|DICT|INTERRES
    41   19   89 1    
    42   20   21 2    
    43   20   22 1    
    44   22   23 1    
    45   22   24 1    
    46   22   90 1    
    47   23   91 1    
    48   23   92 1    
    49   23   93 1    
    50   24   25 am   BACKBONE|DICT|INTERRES
    51   24   94 1    
    52   25   26 2    
    53   25   27 1    
    54   27   28 1    
    55   27   29 1    
    56   27   95 1    
    57   28   96 1    
    58   28   97 1    
    59   28   98 1    
    60   29   30 am   BACKBONE|DICT|INTERRES
    61   29   99 1    
    62   30   31 2    
    63   30   32 1    
    64   32   33 1    
    65   32   34 1    
    66   32  100 1    
    67   33  101 1    
    68   33  102 1    
    69   33  103 1    
    70   34   35 am   BACKBONE|DICT|INTERRES
    71   34  104 1    
    72   35   36 2    
    73   37   38 2    
    74   37   39 am   BACKBONE|DICT|INTERRES
    75   39   40 1    
    76   39  105 1    
    77   40   41 1    
    78   40   42 1    
    79   40  106 1    
    80   41  107 1    
    81   41  108 1    
    82   41  109 1    
    83   42   43 2    
    84   42   44 am   BACKBONE|DICT|INTERRES
    85   44   45 1    
    86   44  110 1    
    87   45   46 1    
    88   45   47 1    
    89   45  111 1    
    90   46  112 1    
    91   46  113 1    
    92   46  114 1    
    93   47   48 2    
    94   47   49 am   BACKBONE|DICT|INTERRES
    95   49   50 1    
    96   49  115 1    
    97   50   51 1    
    98   50   52 1    
    99   50  116 1    
   100   51  117 1    
   101   51  118 1    
   102   51  119 1    
   103   52   53 2    
   104   52   54 am   BACKBONE|DICT|INTERRES
   105   54   55 1    
   106   54  120 1    
   107   55   56 1    
   108   55   57 1    
   109   55  121 1    
   110   56  122 1    
   111   56  123 1    
   112   56  124 1    
   113   57   58 2    
   114   57   59 am   BACKBONE|DICT|INTERRES
   115   59   60 1    
   116   59  125 1    
   117   60   61 1    
   118   60   62 1    
   119   60  126 1    
   120   61  127 1    
   121   61  128 1    
   122   61  129 1    
   123   62   63 2    
   124   62   64 am   BACKBONE|DICT|INTERRES
   125   64   65 1    
   126   64  130 1    
   127   65   66 1    
   128   65   69 1    
   129   65  131 1    
   130   66   67 am   BACKBONE|DICT|INTERRES
   131   66   68 2    
   132   67  132 1    
   133   67  133 1    
   134   69   70 1    
   135   69  134 1    
   136   69  135 1    
   137   70   71 1    
   138   71  136 1    
   139   71  137 1    
@<TRIPOS>SUBSTRUCTURE
     1 UNK         1 GROUP             0       ****    0 ROOT    
