@<TRIPOS>MOLECULE
3R137
137   139    1
SMALL
USER_CHARGES


@<TRIPOS>ATOM
      1 CA         24.0607   -5.9564   -4.2608 C.3       0 UNK        -0.2020 
      2 C          24.6454   -5.1325   -3.1238 C.2       0 UNK         0.4855 
      3 O          23.9196   -4.3714   -2.4826 O.2       0 UNK        -0.5197 
      4 N          25.9539   -5.2840   -2.8765 N.am      1 UNK        -0.4892 
      5 CA         26.7394   -4.6001   -1.8409 C.3       1 UNK         0.0835 
      6 C6         28.2095   -5.0882   -1.8801 C.3       12 UNK        -0.0855 
      7 S7         29.1818   -4.5853   -0.4187 S.3       12 UNK        -0.2931 
      8 C8         30.8713   -4.5007   -1.1074 C.3       12 UNK         0.0378 
      9 C9         31.0015   -3.4443   -2.1973 C.ar      12 UNK        -0.0802 
     10 C10        31.2949   -3.8138   -3.5139 C.ar      12 UNK        -0.0944 
     11 C11        31.3709   -2.8481   -4.5224 C.ar      12 UNK        -0.0787 
     12 C12        31.1347   -1.5050   -4.2091 C.ar      12 UNK        -0.0862 
     13 C13        30.8648   -1.1213   -2.8926 C.ar      12 UNK        -0.0733 
     14 C14        30.8138   -2.0946   -1.8901 C.ar      12 UNK        -0.0832 
     15 C15        30.6108    0.3385   -2.5477 C.3       12 UNK         0.0240 
     16 S16        28.9232    0.5515   -1.9067 S.3       12 UNK        -0.2522 
     17 C17        28.2766    1.9613   -2.8607 C.3       12 UNK        -0.0967 
     18 CA         28.1231    1.7277   -4.3899 C.3       5 UNK         0.0660 
     19 N          27.6359    0.3939   -4.7541 N.am      5 UNK        -0.4015 
     20 C          27.6634   -0.0967   -6.0026 C.2       4 UNK         0.4946 
     21 O          28.2072    0.4756   -6.9454 O.2       4 UNK        -0.5353 
     22 CA         26.9272   -1.4197   -6.2638 C.3       4 UNK         0.0277 
     23 CB         27.8866   -2.6152   -6.1440 C.3       4 UNK        -0.1981 
     24 N          25.7793   -1.5950   -5.3700 N.am      4 UNK        -0.4209 
     25 C          24.6349   -0.9010   -5.4827 C.2       3 UNK         0.4942 
     26 O          24.4192   -0.0884   -6.3804 O.2       3 UNK        -0.5208 
     27 CA         23.5659   -1.0973   -4.3934 C.3       3 UNK         0.0250 
     28 CB         22.5820   -2.2069   -4.7915 C.3       3 UNK        -0.1990 
     29 N          24.1360   -1.3804   -3.0747 N.am      3 UNK        -0.4232 
     30 C          24.8831   -0.5062   -2.3826 C.2       2 UNK         0.4993 
     31 O          25.1141    0.6419   -2.7669 O.2       2 UNK        -0.5286 
     32 CA         25.5259   -1.0066   -1.0754 C.3       2 UNK         0.0209 
     33 CB         24.6167   -0.6884    0.1217 C.3       2 UNK        -0.1931 
     34 N          25.8561   -2.4377   -1.0692 N.am      2 UNK        -0.4546 
     35 C          26.6196   -3.0659   -1.9768 C.2       1 UNK         0.5154 
     36 O          27.1439   -2.4983   -2.9356 O.2       1 UNK        -0.5181 
     37 C          27.2152    2.8152   -4.9969 C.2       5 UNK         0.5014 
     38 O          27.7187    3.7636   -5.5996 O.2       5 UNK        -0.5248 
     39 N          25.8950    2.6485   -4.8205 N.am      6 UNK        -0.4434 
     40 CA         24.8602    3.5760   -5.2806 C.3       6 UNK         0.0363 
     41 CB         23.5034    3.1660   -4.6853 C.3       6 UNK        -0.1936 
     42 C          24.7709    3.6882   -6.8116 C.2       6 UNK         0.5081 
     43 O          24.7149    4.8032   -7.3313 O.2       6 UNK        -0.5248 
     44 N          24.7545    2.5430   -7.5074 N.am      7 UNK        -0.4718 
     45 CA         24.6585    2.4753   -8.9701 C.3       7 UNK         0.0273 
     46 CB         24.1372    1.0866   -9.3747 C.3       7 UNK        -0.1935 
     47 C          25.9850    2.7719   -9.6928 C.2       7 UNK         0.5018 
     48 O          25.9478    3.0876  -10.8832 O.2       7 UNK        -0.5186 
     49 N          27.1070    2.6496   -8.9672 N.am      8 UNK        -0.4240 
     50 CA         28.5054    2.6417   -9.4144 C.3       8 UNK         0.0235 
     51 CB         28.8611    3.8610  -10.2896 C.3       8 UNK        -0.2000 
     52 C          28.8778    1.3124  -10.0957 C.2       8 UNK         0.4941 
     53 O          28.0391    0.6678  -10.7312 O.2       8 UNK        -0.5273 
     54 N          30.1436    0.9159   -9.9393 N.am      9 UNK        -0.4262 
     55 CA         30.6854   -0.3698  -10.3669 C.3       9 UNK         0.0264 
     56 CB         30.2208   -1.4705   -9.3898 C.3       9 UNK        -0.1955 
     57 C          32.2149   -0.2779  -10.4135 C.2       9 UNK         0.5031 
     58 O          32.7868    0.7196   -9.9612 O.2       9 UNK        -0.5390 
     59 N          32.8510   -1.3444  -10.9192 N.am      10 UNK        -0.4204 
     60 CA         34.3057   -1.5041  -11.0619 C.3       10 UNK         0.0237 
     61 CB         34.5942   -2.8445  -11.7588 C.3       10 UNK        -0.1985 
     62 C          35.1158   -1.3949   -9.7535 C.2       10 UNK         0.4970 
     63 O          36.3271   -1.1813   -9.8196 O.2       10 UNK        -0.4914 
     64 N          34.4446   -1.5200   -8.6011 N.am      11 UNK        -0.4285 
     65 CA         34.9887   -1.2270   -7.2670 C.3       11 UNK         0.1007 
     66 C          35.4075    0.2601   -7.0612 C.2       11 UNK         0.5703 
     67 N          34.8850    1.2110   -7.8296 N.am      11 UNK        -0.7361 
     68 O          36.2211    0.5518   -6.1878 O.2       11 UNK        -0.4986 
     69 C69        34.0094   -1.6505   -6.1419 C.3       12 UNK        -0.0947 
     70 S70        33.4892   -3.3981   -6.2302 S.3       12 UNK        -0.2240 
     71 C71        31.6936   -3.2624   -5.9512 C.3       12 UNK         0.0194 
     72 H72        24.0299   -5.3696   -5.1779 H         1 UNK         0.0906 
     73 H73        24.6487   -6.8545   -4.4495 H         1 UNK         0.0906 
     74 H74        23.0445   -6.2669   -4.0192 H         1 UNK         0.0906 
     75 H75        26.4826   -5.9107   -3.4663 H         1 UNK         0.3140 
     76 H76        26.3144   -4.8950   -0.8791 H         1 UNK         0.1085 
     77 H77        28.6934   -4.7457   -2.7961 H         1 UNK         0.0836 
     78 H78        28.2388   -6.1783   -1.9187 H         1 UNK         0.0836 
     79 H79        31.1512   -5.4859   -1.4839 H         1 UNK         0.0731 
     80 H80        31.5705   -4.2698   -0.3026 H         1 UNK         0.0731 
     81 H81        31.4571   -4.8546   -3.7589 H         1 UNK         0.1312 
     82 H82        31.1624   -0.7569   -4.9888 H         1 UNK         0.1406 
     83 H83        30.5862   -1.8045   -0.8732 H         1 UNK         0.1631 
     84 H84        30.7749    0.9770   -3.4159 H         1 UNK         0.0717 
     85 H85        31.3242    0.6620   -1.7887 H         1 UNK         0.0717 
     86 H86        27.3149    2.2089   -2.4063 H         1 UNK         0.0934 
     87 H87        28.9170    2.8263   -2.6779 H         1 UNK         0.0934 
     88 H88        29.1098    1.8411   -4.8436 H         1 UNK         0.0739 
     89 H89        27.2111   -0.1519   -4.0164 H         1 UNK         0.3093 
     90 H90        26.5546   -1.3911   -7.2903 H         1 UNK         0.0818 
     91 H91        28.6724   -2.5533   -6.8972 H         1 UNK         0.0819 
     92 H92        28.3786   -2.6505   -5.1718 H         1 UNK         0.0819 
     93 H93        27.3675   -3.5616   -6.2938 H         1 UNK         0.0819 
     94 H94        25.9344   -2.1719   -4.5500 H         1 UNK         0.3041 
     95 H95        23.0037   -0.1648   -4.3136 H         1 UNK         0.0784 
     96 H96        22.0880   -1.9672   -5.7342 H         1 UNK         0.0793 
     97 H97        23.0846   -3.1639   -4.9234 H         1 UNK         0.0793 
     98 H98        21.8027   -2.3371   -4.0404 H         1 UNK         0.0793 
     99 H99        24.0126   -2.3200   -2.7085 H         1 UNK         0.3024 
    100 H100       26.4587   -0.4581   -0.9461 H         1 UNK         0.1171 
    101 H101       25.1019   -0.9354    1.0662 H         1 UNK         0.0786 
    102 H102       24.3729    0.3747    0.1541 H         1 UNK         0.0786 
    103 H103       23.6757   -1.2377    0.0715 H         1 UNK         0.0786 
    104 H104       25.4210   -2.9914   -0.3453 H         1 UNK         0.2977 
    105 H105       25.5805    1.8572   -4.2645 H         1 UNK         0.3127 
    106 H106       25.1128    4.5651   -4.8925 H         1 UNK         0.0770 
    107 H107       22.7225    3.8710   -4.9730 H         1 UNK         0.0814 
    108 H108       23.5372    3.1452   -3.5957 H         1 UNK         0.0814 
    109 H109       23.1938    2.1787   -5.0289 H         1 UNK         0.0814 
    110 H110       24.7544    1.6542   -7.0094 H         1 UNK         0.2983 
    111 H111       23.9322    3.2196   -9.3047 H         1 UNK         0.0947 
    112 H112       23.9946    1.0216  -10.4542 H         1 UNK         0.0806 
    113 H113       23.1774    0.8689   -8.9059 H         1 UNK         0.0806 
    114 H114       24.8359    0.2982   -9.0910 H         1 UNK         0.0806 
    115 H115       26.9845    2.3555   -8.0072 H         1 UNK         0.3000 
    116 H116       29.0905    2.7114   -8.4956 H         1 UNK         0.0850 
    117 H117       28.5429    4.7928   -9.8220 H         1 UNK         0.0810 
    118 H118       28.4029    3.8043  -11.2772 H         1 UNK         0.0810 
    119 H119       29.9390    3.9257  -10.4424 H         1 UNK         0.0810 
    120 H120       30.8191    1.5131   -9.4772 H         1 UNK         0.3040 
    121 H121       30.3306   -0.5934  -11.3752 H         1 UNK         0.0766 
    122 H122       30.4978   -1.2251   -8.3648 H         1 UNK         0.0812 
    123 H123       30.6521   -2.4428   -9.6295 H         1 UNK         0.0812 
    124 H124       29.1373   -1.5894   -9.4140 H         1 UNK         0.0812 
    125 H125       32.2902   -2.1135  -11.2580 H         1 UNK         0.3205 
    126 H126       34.6538   -0.6994  -11.7127 H         1 UNK         0.0754 
    127 H127       35.6651   -2.9827  -11.9157 H         1 UNK         0.0769 
    128 H128       34.1188   -2.8948  -12.7387 H         1 UNK         0.0769 
    129 H129       34.2403   -3.6905  -11.1679 H         1 UNK         0.0769 
    130 H130       33.4569   -1.7137   -8.6408 H         1 UNK         0.2981 
    131 H131       35.8974   -1.8220   -7.1582 H         1 UNK         0.0541 
    132 H132       34.2075    0.9866   -8.5510 H         1 UNK         0.3459 
    133 H133       35.1665    2.1676   -7.6875 H         1 UNK         0.3459 
    134 H134       33.1270   -1.0113   -6.1773 H         1 UNK         0.0612 
    135 H135       34.4602   -1.4936   -5.1601 H         1 UNK         0.0612 
    136 H136       31.2661   -2.5550   -6.6603 H         1 UNK         0.0624 
    137 H137       31.2300   -4.2260   -6.1674 H         1 UNK         0.0624 
@<TRIPOS>BOND
     1    1    2 1    
     2    1   72 1    
     3    1   73 1    
     4    1   74 1    
     5    2    3 2    
     6    2    4 am   BACKBONE|DICT|INTERRES
     7    4    5 1    
     8    4   75 1    
     9    5    6 1    
    10    5   35 1    
    11    5   76 1    
    12    6    7 1    
    13    6   77 1    
    14    6   78 1    
    15    7    8 1    
    16    8    9 1    
    17    8   79 1    
    18    8   80 1    
    19    9   10 ar   
    20    9   14 ar   
    21   10   11 ar   
    22   10   81 1    
    23   11   12 ar   
    24   11   71 1    
    25   12   13 ar   
    26   12   82 1    
    27   13   14 ar   
    28   13   15 1    
    29   14   83 1    
    30   15   16 1    
    31   15   84 1    
    32   15   85 1    
    33   16   17 1    
    34   17   18 1    
    35   17   86 1    
    36   17   87 1    
    37   18   19 1    
    38   18   37 1    
    39   18   88 1    
    40   19   20 am   BACKBONE|DICT|INTERRES
    41   19   89 1    
    42   20   21 2    
    43   20   22 1    
    44   22   23 1    
    45   22   24 1    
    46   22   90 1    
    47   23   91 1    
    48   23   92 1    
    49   23   93 1    
    50   24   25 am   BACKBONE|DICT|INTERRES
    51   24   94 1    
    52   25   26 2    
    53   25   27 1    
    54   27   28 1    
    55   27   29 1    
    56   27   95 1    
    57   28   96 1    
    58   28   97 1    
    59   28   98 1    
    60   29   30 am   BACKBONE|DICT|INTERRES
    61   29   99 1    
    62   30   31 2    
    63   30   32 1    
    64   32   33 1    
    65   32   34 1    
    66   32  100 1    
    67   33  101 1    
    68   33  102 1    
    69   33  103 1    
    70   34   35 am   BACKBONE|DICT|INTERRES
    71   34  104 1    
    72   35   36 2    
    73   37   38 2    
    74   37   39 am   BACKBONE|DICT|INTERRES
    75   39   40 1    
    76   39  105 1    
    77   40   41 1    
    78   40   42 1    
    79   40  106 1    
    80   41  107 1    
    81   41  108 1    
    82   41  109 1    
    83   42   43 2    
    84   42   44 am   BACKBONE|DICT|INTERRES
    85   44   45 1    
    86   44  110 1    
    87   45   46 1    
    88   45   47 1    
    89   45  111 1    
    90   46  112 1    
    91   46  113 1    
    92   46  114 1    
    93   47   48 2    
    94   47   49 am   BACKBONE|DICT|INTERRES
    95   49   50 1    
    96   49  115 1    
    97   50   51 1    
    98   50   52 1    
    99   50  116 1    
   100   51  117 1    
   101   51  118 1    
   102   51  119 1    
   103   52   53 2    
   104   52   54 am   BACKBONE|DICT|INTERRES
   105   54   55 1    
   106   54  120 1    
   107   55   56 1    
   108   55   57 1    
   109   55  121 1    
   110   56  122 1    
   111   56  123 1    
   112   56  124 1    
   113   57   58 2    
   114   57   59 am   BACKBONE|DICT|INTERRES
   115   59   60 1    
   116   59  125 1    
   117   60   61 1    
   118   60   62 1    
   119   60  126 1    
   120   61  127 1    
   121   61  128 1    
   122   61  129 1    
   123   62   63 2    
   124   62   64 am   BACKBONE|DICT|INTERRES
   125   64   65 1    
   126   64  130 1    
   127   65   66 1    
   128   65   69 1    
   129   65  131 1    
   130   66   67 am   BACKBONE|DICT|INTERRES
   131   66   68 2    
   132   67  132 1    
   133   67  133 1    
   134   69   70 1    
   135   69  134 1    
   136   69  135 1    
   137   70   71 1    
   138   71  136 1    
   139   71  137 1    
@<TRIPOS>SUBSTRUCTURE
     1 UNK         1 GROUP             0       ****    0 ROOT    
