@<TRIPOS>MOLECULE
3R137
137   139    1
SMALL
USER_CHARGES


@<TRIPOS>ATOM
      1 CA         27.9464   -6.6027   -3.9114 C.3       0 UNK        -0.2020 
      2 C          27.3012   -5.8026   -2.7899 C.2       0 UNK         0.4855 
      3 O          26.3660   -6.2898   -2.1537 O.2       0 UNK        -0.5197 
      4 N          27.7944   -4.5830   -2.5387 N.am      1 UNK        -0.4892 
      5 CA         27.2359   -3.6522   -1.5519 C.3       1 UNK         0.0835 
      6 C6         28.2183   -2.5095   -1.1875 C.3       12 UNK        -0.0855 
      7 S7         29.7394   -3.1350   -0.3946 S.3       12 UNK        -0.2931 
      8 C8         30.9845   -1.9079   -0.9339 C.3       12 UNK         0.0378 
      9 C9         31.1468   -1.7962   -2.4489 C.ar      12 UNK        -0.0802 
     10 C10        31.4501   -0.5555   -3.0205 C.ar      12 UNK        -0.0944 
     11 C11        31.5913   -0.4260   -4.4053 C.ar      12 UNK        -0.0787 
     12 C12        31.3976   -1.5415   -5.2234 C.ar      12 UNK        -0.0862 
     13 C13        31.0889   -2.7839   -4.6680 C.ar      12 UNK        -0.0733 
     14 C14        30.9985   -2.9118   -3.2809 C.ar      12 UNK        -0.0832 
     15 C15        30.8284   -3.9871   -5.5607 C.3       12 UNK         0.0240 
     16 S16        29.4384   -3.7367   -6.7184 S.3       12 UNK        -0.2522 
     17 C17        28.0876   -3.0472   -5.6937 C.3       12 UNK        -0.0967 
     18 CA         27.3342   -1.9210   -6.4467 C.3       5 UNK         0.0660 
     19 N          25.9015   -1.8947   -6.1264 N.am      5 UNK        -0.4015 
     20 C          24.9927   -1.3221   -6.9309 C.2       4 UNK         0.4946 
     21 O          25.2815   -0.7245   -7.9694 O.2       4 UNK        -0.5353 
     22 CA         23.5184   -1.4235   -6.5140 C.3       4 UNK         0.0277 
     23 CB         23.0471   -2.8881   -6.4963 C.3       4 UNK        -0.1981 
     24 N          23.2109   -0.7953   -5.2285 N.am      4 UNK        -0.4209 
     25 C          23.4293    0.4872   -4.8981 C.2       3 UNK         0.4942 
     26 O          24.0259    1.2896   -5.6103 O.2       3 UNK        -0.5208 
     27 CA         22.8856    0.9597   -3.5381 C.3       3 UNK         0.0250 
     28 CB         21.4766    1.5523   -3.6990 C.3       3 UNK        -0.1990 
     29 N          22.8519   -0.1284   -2.5603 N.am      3 UNK        -0.4232 
     30 C          23.9501   -0.6196   -1.9742 C.2       2 UNK         0.4993 
     31 O          25.0514   -0.0658   -2.0334 O.2       2 UNK        -0.5286 
     32 CA         23.7927   -1.9516   -1.2116 C.3       2 UNK         0.0209 
     33 CB         22.7389   -2.8959   -1.8368 C.3       2 UNK        -0.1931 
     34 N          25.0715   -2.6562   -1.0622 N.am      2 UNK        -0.4546 
     35 C          25.8978   -3.0624   -2.0396 C.2       1 UNK         0.5154 
     36 O          25.6688   -2.9480   -3.2515 O.2       1 UNK        -0.5181 
     37 C          27.9903   -0.5315   -6.2859 C.2       5 UNK         0.5014 
     38 O          28.9323   -0.2137   -7.0159 O.2       5 UNK        -0.5248 
     39 N          27.4413    0.2942   -5.3813 N.am      6 UNK        -0.4434 
     40 CA         27.8185    1.6950   -5.1967 C.3       6 UNK         0.0363 
     41 CB         27.1628    2.2450   -3.9205 C.3       6 UNK        -0.1936 
     42 C          27.4715    2.5627   -6.4193 C.2       6 UNK         0.5081 
     43 O          28.3188    3.3368   -6.8623 O.2       6 UNK        -0.5248 
     44 N          26.2568    2.3979   -6.9653 N.am      7 UNK        -0.4718 
     45 CA         25.7925    3.0678   -8.1847 C.3       7 UNK         0.0273 
     46 CB         24.2754    2.8799   -8.3421 C.3       7 UNK        -0.1935 
     47 C          26.5266    2.5881   -9.4461 C.2       7 UNK         0.5018 
     48 O          26.7967    3.4041  -10.3283 O.2       7 UNK        -0.5186 
     49 N          26.8615    1.2894   -9.5009 N.am      8 UNK        -0.4240 
     50 CA         27.7114    0.7004  -10.5420 C.3       8 UNK         0.0235 
     51 CB         27.6855   -0.8319  -10.4257 C.3       8 UNK        -0.2000 
     52 C          29.1627    1.2149  -10.4951 C.2       8 UNK         0.4941 
     53 O          29.8207    1.2451  -11.5354 O.2       8 UNK        -0.5273 
     54 N          29.6224    1.6079   -9.2963 N.am      9 UNK        -0.4262 
     55 CA         30.9341    2.1793   -8.9745 C.3       9 UNK         0.0264 
     56 CB         31.1146    3.5561   -9.6472 C.3       9 UNK        -0.1955 
     57 C          32.1015    1.2161   -9.2564 C.2       9 UNK         0.5031 
     58 O          33.2024    1.6625   -9.5861 O.2       9 UNK        -0.5390 
     59 N          31.8534   -0.0929   -9.0957 N.am      10 UNK        -0.4204 
     60 CA         32.8042   -1.1726   -9.3916 C.3       10 UNK         0.0237 
     61 CB         32.0853   -2.5261   -9.2811 C.3       10 UNK        -0.1985 
     62 C          34.0780   -1.1589   -8.5247 C.2       10 UNK         0.4970 
     63 O          35.0871   -1.7351   -8.9321 O.2       10 UNK        -0.4914 
     64 N          34.0138   -0.4947   -7.3647 N.am      11 UNK        -0.4285 
     65 CA         35.1519   -0.2213   -6.4816 C.3       11 UNK         0.1007 
     66 C          36.0965    0.9168   -6.9728 C.2       11 UNK         0.5703 
     67 N          35.7604    1.6687   -8.0164 N.am      11 UNK        -0.7361 
     68 O          37.1683    1.1091   -6.4034 O.2       11 UNK        -0.4986 
     69 C69        34.6884   -0.0344   -5.0127 C.3       12 UNK        -0.0947 
     70 S70        33.6579    1.4474   -4.6930 S.3       12 UNK        -0.2240 
     71 C71        31.9429    0.9167   -5.0273 C.3       12 UNK         0.0194 
     72 H72        27.1811   -6.9888   -4.5842 H         1 UNK         0.0906 
     73 H73        28.6338   -5.9995   -4.5011 H         1 UNK         0.0906 
     74 H74        28.4976   -7.4483   -3.5011 H         1 UNK         0.0906 
     75 H75        28.5579   -4.2256   -3.0898 H         1 UNK         0.3140 
     76 H76        27.0307   -4.2238   -0.6434 H         1 UNK         0.1085 
     77 H77        28.4644   -1.9257   -2.0763 H         1 UNK         0.0836 
     78 H78        27.7575   -1.8074   -0.4895 H         1 UNK         0.0836 
     79 H79        30.7120   -0.9390   -0.5123 H         1 UNK         0.0731 
     80 H80        31.9491   -2.1744   -0.5003 H         1 UNK         0.0731 
     81 H81        31.5855    0.3123   -2.3894 H         1 UNK         0.1312 
     82 H82        31.4647   -1.4437   -6.2967 H         1 UNK         0.1406 
     83 H83        30.7880   -3.8795   -2.8477 H         1 UNK         0.1631 
     84 H84        30.6351   -4.8789   -4.9643 H         1 UNK         0.0717 
     85 H85        31.7293   -4.2010   -6.1371 H         1 UNK         0.0717 
     86 H86        27.4090   -3.8743   -5.4800 H         1 UNK         0.0934 
     87 H87        28.4445   -2.6993   -4.7243 H         1 UNK         0.0934 
     88 H88        27.3887   -2.1563   -7.5115 H         1 UNK         0.0739 
     89 H89        25.6123   -2.3323   -5.2563 H         1 UNK         0.3093 
     90 H90        22.9369   -0.8953   -7.2726 H         1 UNK         0.0818 
     91 H91        21.9681   -2.9550   -6.3558 H         1 UNK         0.0819 
     92 H92        23.2783   -3.3847   -7.4400 H         1 UNK         0.0819 
     93 H93        23.5238   -3.4619   -5.7002 H         1 UNK         0.0819 
     94 H94        22.7289   -1.3737   -4.5582 H         1 UNK         0.3041 
     95 H95        23.5463    1.7481   -3.1700 H         1 UNK         0.0784 
     96 H96        21.4825    2.3796   -4.4104 H         1 UNK         0.0793 
     97 H97        20.7630    0.8131   -4.0654 H         1 UNK         0.0793 
     98 H98        21.1006    1.9433   -2.7533 H         1 UNK         0.0793 
     99 H99        21.9693   -0.6006   -2.4256 H         1 UNK         0.3024 
    100 H100       23.4612   -1.6898   -0.2053 H         1 UNK         0.1171 
    101 H101       21.7343   -2.4759   -1.7801 H         1 UNK         0.0786 
    102 H102       22.7072   -3.8493   -1.3091 H         1 UNK         0.0786 
    103 H103       22.9530   -3.1098   -2.8846 H         1 UNK         0.0786 
    104 H104       25.3839   -2.7665   -0.1074 H         1 UNK         0.2977 
    105 H105       26.6570   -0.0390   -4.8395 H         1 UNK         0.3127 
    106 H106       28.9010    1.7304   -5.0626 H         1 UNK         0.0770 
    107 H107       26.0743    2.2191   -3.9786 H         1 UNK         0.0814 
    108 H108       27.4557    3.2814   -3.7481 H         1 UNK         0.0814 
    109 H109       27.4625    1.6726   -3.0422 H         1 UNK         0.0814 
    110 H110       25.5827    1.7875   -6.5066 H         1 UNK         0.2983 
    111 H111       25.9931    4.1359   -8.0759 H         1 UNK         0.0947 
    112 H112       23.9101    3.3733   -9.2438 H         1 UNK         0.0806 
    113 H113       23.7344    3.3069   -7.4976 H         1 UNK         0.0806 
    114 H114       24.0058    1.8251   -8.4127 H         1 UNK         0.0806 
    115 H115       26.5151    0.6671   -8.7761 H         1 UNK         0.3000 
    116 H116       27.2923    0.9784  -11.5114 H         1 UNK         0.0850 
    117 H117       28.2341   -1.2929  -11.2481 H         1 UNK         0.0810 
    118 H118       26.6665   -1.2180  -10.4576 H         1 UNK         0.0810 
    119 H119       28.1463   -1.1731   -9.4991 H         1 UNK         0.0810 
    120 H120       29.0083    1.4773   -8.5007 H         1 UNK         0.3040 
    121 H121       30.9295    2.3434   -7.8963 H         1 UNK         0.0766 
    122 H122       30.2791    4.2183   -9.4192 H         1 UNK         0.0812 
    123 H123       31.1900    3.4704  -10.7316 H         1 UNK         0.0812 
    124 H124       32.0223    4.0480   -9.2958 H         1 UNK         0.0812 
    125 H125       30.9226   -0.3641   -8.8067 H         1 UNK         0.3205 
    126 H126       33.1245   -1.0439  -10.4276 H         1 UNK         0.0754 
    127 H127       32.7465   -3.3439   -9.5710 H         1 UNK         0.0769 
    128 H128       31.2126   -2.5704   -9.9331 H         1 UNK         0.0769 
    129 H129       31.7547   -2.7240   -8.2629 H         1 UNK         0.0769 
    130 H130       33.1557   -0.0263   -7.1253 H         1 UNK         0.2981 
    131 H131       35.7740   -1.1183   -6.4874 H         1 UNK         0.0541 
    132 H132       34.8812    1.5360   -8.5049 H         1 UNK         0.3459 
    133 H133       36.3916    2.3932   -8.3185 H         1 UNK         0.3459 
    134 H134       35.5626    0.0389   -4.3637 H         1 UNK         0.0612 
    135 H135       34.1698   -0.9302   -4.6721 H         1 UNK         0.0612 
    136 H136       31.2672    1.6785   -4.6375 H         1 UNK         0.0624 
    137 H137       31.7779    0.8954   -6.1041 H         1 UNK         0.0624 
@<TRIPOS>BOND
     1    1    2 1    
     2    1   72 1    
     3    1   73 1    
     4    1   74 1    
     5    2    3 2    
     6    2    4 am   BACKBONE|DICT|INTERRES
     7    4    5 1    
     8    4   75 1    
     9    5    6 1    
    10    5   35 1    
    11    5   76 1    
    12    6    7 1    
    13    6   77 1    
    14    6   78 1    
    15    7    8 1    
    16    8    9 1    
    17    8   79 1    
    18    8   80 1    
    19    9   10 ar   
    20    9   14 ar   
    21   10   11 ar   
    22   10   81 1    
    23   11   12 ar   
    24   11   71 1    
    25   12   13 ar   
    26   12   82 1    
    27   13   14 ar   
    28   13   15 1    
    29   14   83 1    
    30   15   16 1    
    31   15   84 1    
    32   15   85 1    
    33   16   17 1    
    34   17   18 1    
    35   17   86 1    
    36   17   87 1    
    37   18   19 1    
    38   18   37 1    
    39   18   88 1    
    40   19   20 am   BACKBONE|DICT|INTERRES
    41   19   89 1    
    42   20   21 2    
    43   20   22 1    
    44   22   23 1    
    45   22   24 1    
    46   22   90 1    
    47   23   91 1    
    48   23   92 1    
    49   23   93 1    
    50   24   25 am   BACKBONE|DICT|INTERRES
    51   24   94 1    
    52   25   26 2    
    53   25   27 1    
    54   27   28 1    
    55   27   29 1    
    56   27   95 1    
    57   28   96 1    
    58   28   97 1    
    59   28   98 1    
    60   29   30 am   BACKBONE|DICT|INTERRES
    61   29   99 1    
    62   30   31 2    
    63   30   32 1    
    64   32   33 1    
    65   32   34 1    
    66   32  100 1    
    67   33  101 1    
    68   33  102 1    
    69   33  103 1    
    70   34   35 am   BACKBONE|DICT|INTERRES
    71   34  104 1    
    72   35   36 2    
    73   37   38 2    
    74   37   39 am   BACKBONE|DICT|INTERRES
    75   39   40 1    
    76   39  105 1    
    77   40   41 1    
    78   40   42 1    
    79   40  106 1    
    80   41  107 1    
    81   41  108 1    
    82   41  109 1    
    83   42   43 2    
    84   42   44 am   BACKBONE|DICT|INTERRES
    85   44   45 1    
    86   44  110 1    
    87   45   46 1    
    88   45   47 1    
    89   45  111 1    
    90   46  112 1    
    91   46  113 1    
    92   46  114 1    
    93   47   48 2    
    94   47   49 am   BACKBONE|DICT|INTERRES
    95   49   50 1    
    96   49  115 1    
    97   50   51 1    
    98   50   52 1    
    99   50  116 1    
   100   51  117 1    
   101   51  118 1    
   102   51  119 1    
   103   52   53 2    
   104   52   54 am   BACKBONE|DICT|INTERRES
   105   54   55 1    
   106   54  120 1    
   107   55   56 1    
   108   55   57 1    
   109   55  121 1    
   110   56  122 1    
   111   56  123 1    
   112   56  124 1    
   113   57   58 2    
   114   57   59 am   BACKBONE|DICT|INTERRES
   115   59   60 1    
   116   59  125 1    
   117   60   61 1    
   118   60   62 1    
   119   60  126 1    
   120   61  127 1    
   121   61  128 1    
   122   61  129 1    
   123   62   63 2    
   124   62   64 am   BACKBONE|DICT|INTERRES
   125   64   65 1    
   126   64  130 1    
   127   65   66 1    
   128   65   69 1    
   129   65  131 1    
   130   66   67 am   BACKBONE|DICT|INTERRES
   131   66   68 2    
   132   67  132 1    
   133   67  133 1    
   134   69   70 1    
   135   69  134 1    
   136   69  135 1    
   137   70   71 1    
   138   71  136 1    
   139   71  137 1    
@<TRIPOS>SUBSTRUCTURE
     1 UNK         1 GROUP             0       ****    0 ROOT    
