@<TRIPOS>MOLECULE
3R137
137   139    1
SMALL
USER_CHARGES


@<TRIPOS>ATOM
      1 CA         26.3147   -5.5598   -2.8789 C.3       0 UNK        -0.2020 
      2 C          26.3860   -4.2871   -2.0480 C.2       0 UNK         0.4855 
      3 O          25.5771   -4.1064   -1.1381 O.2       0 UNK        -0.5197 
      4 N          27.3498   -3.4095   -2.3509 N.am      1 UNK        -0.4892 
      5 CA         27.5187   -2.1088   -1.7007 C.3       1 UNK         0.0835 
      6 C6         29.0058   -1.6763   -1.6671 C.3       12 UNK        -0.0855 
      7 S7         29.9131   -2.3715   -0.2427 S.3       12 UNK        -0.2931 
      8 C8         30.2513   -4.0976   -0.7291 C.3       12 UNK         0.0378 
      9 C9         30.9373   -4.2236   -2.0829 C.ar      12 UNK        -0.0802 
     10 C10        32.1488   -3.5684   -2.3327 C.ar      12 UNK        -0.0944 
     11 C11        32.7698   -3.6763   -3.5804 C.ar      12 UNK        -0.0787 
     12 C12        32.1795   -4.4664   -4.5717 C.ar      12 UNK        -0.0862 
     13 C13        30.9552   -5.0988   -4.3459 C.ar      12 UNK        -0.0733 
     14 C14        30.3506   -4.9949   -3.0913 C.ar      12 UNK        -0.0832 
     15 C15        30.2658   -5.8471   -5.4789 C.3       12 UNK         0.0240 
     16 S16        28.7921   -4.9609   -6.0967 S.3       12 UNK        -0.2522 
     17 C17        29.4040   -3.2455   -6.2749 C.3       12 UNK        -0.0967 
     18 CA         28.4236   -2.2833   -6.9969 C.3       5 UNK         0.0660 
     19 N          27.0376   -2.4770   -6.5539 N.am      5 UNK        -0.4015 
     20 C          25.9572   -1.7921   -6.9479 C.2       4 UNK         0.4946 
     21 O          26.0040   -0.8031   -7.6794 O.2       4 UNK        -0.5353 
     22 CA         24.5909   -2.2675   -6.4351 C.3       4 UNK         0.0277 
     23 CB         24.6351   -3.5216   -5.5363 C.3       4 UNK        -0.1981 
     24 N          23.9872   -1.1629   -5.7028 N.am      4 UNK        -0.4209 
     25 C          22.6865   -0.8500   -5.6686 C.2       3 UNK         0.4942 
     26 O          21.8180   -1.4824   -6.2721 O.2       3 UNK        -0.5208 
     27 CA         22.2871    0.3929   -4.8399 C.3       3 UNK         0.0250 
     28 CB         20.9270    0.2175   -4.1302 C.3       3 UNK        -0.1990 
     29 N          23.3278    0.8423   -3.8992 N.am      3 UNK        -0.4232 
     30 C          23.8140    0.1643   -2.8488 C.2       2 UNK         0.4993 
     31 O          23.3645   -0.9094   -2.4430 O.2       2 UNK        -0.5286 
     32 CA         25.0271    0.7948   -2.1457 C.3       2 UNK         0.0209 
     33 CB         24.5742    1.6668   -0.9636 C.3       2 UNK        -0.1931 
     34 N          25.9624   -0.2239   -1.6624 N.am      2 UNK        -0.4546 
     35 C          26.6584   -1.0669   -2.4382 C.2       1 UNK         0.5154 
     36 O          26.6757   -1.0185   -3.6745 O.2       1 UNK        -0.5181 
     37 C          28.9278   -0.8287   -6.8635 C.2       5 UNK         0.5014 
     38 O          29.6172   -0.3343   -7.7618 O.2       5 UNK        -0.5248 
     39 N          28.5752   -0.1640   -5.7514 N.am      6 UNK        -0.4434 
     40 CA         28.9643    1.2227   -5.4916 C.3       6 UNK         0.0363 
     41 CB         28.8301    1.5512   -3.9988 C.3       6 UNK        -0.1936 
     42 C          28.1751    2.2251   -6.3466 C.2       6 UNK         0.5081 
     43 O          28.7522    3.2075   -6.8115 O.2       6 UNK        -0.5248 
     44 N          26.8840    1.9479   -6.5697 N.am      7 UNK        -0.4718 
     45 CA         26.0133    2.7557   -7.4280 C.3       7 UNK         0.0273 
     46 CB         24.5435    2.3900   -7.1701 C.3       7 UNK        -0.1935 
     47 C          26.3598    2.6064   -8.9179 C.2       7 UNK         0.5018 
     48 O          26.2210    3.5745   -9.6661 O.2       7 UNK        -0.5186 
     49 N          26.8070    1.4052   -9.3113 N.am      8 UNK        -0.4240 
     50 CA         27.2428    1.0669  -10.6639 C.3       8 UNK         0.0235 
     51 CB         27.5006   -0.4462  -10.7667 C.3       8 UNK        -0.2000 
     52 C          28.4692    1.8750  -11.1174 C.2       8 UNK         0.4941 
     53 O          28.3901    2.5428  -12.1499 O.2       8 UNK        -0.5273 
     54 N          29.5719    1.8041  -10.3552 N.am      9 UNK        -0.4262 
     55 CA         30.8405    2.4538  -10.7095 C.3       9 UNK         0.0264 
     56 CB         31.4993    1.7275  -11.9075 C.3       9 UNK        -0.1955 
     57 C          31.8015    2.5719   -9.5138 C.2       9 UNK         0.5031 
     58 O          33.0060    2.3749   -9.6942 O.2       9 UNK        -0.5390 
     59 N          31.2808    2.8529   -8.3055 N.am      10 UNK        -0.4204 
     60 CA         32.0395    2.9809   -7.0437 C.3       10 UNK         0.0237 
     61 CB         32.9002    4.2628   -7.0656 C.3       10 UNK        -0.1985 
     62 C          32.8674    1.7245   -6.6833 C.2       10 UNK         0.4970 
     63 O          33.8895    1.8420   -6.0063 O.2       10 UNK        -0.4914 
     64 N          32.4264    0.5654   -7.1932 N.am      11 UNK        -0.4285 
     65 CA         33.1504   -0.7071   -7.3071 C.3       11 UNK         0.1007 
     66 C          34.6027   -0.6450   -7.8749 C.2       11 UNK         0.5703 
     67 N          34.9335    0.3369   -8.7067 N.am      11 UNK        -0.7361 
     68 O          35.4269   -1.5150   -7.6027 O.2       11 UNK        -0.4986 
     69 C69        32.9250   -1.6613   -6.1074 C.3       12 UNK        -0.0947 
     70 S70        33.7518   -1.2526   -4.5344 S.3       12 UNK        -0.2240 
     71 C71        34.0644   -2.9236   -3.8671 C.3       12 UNK         0.0194 
     72 H72        25.3031   -5.7043   -3.2576 H         1 UNK         0.0906 
     73 H73        26.9910   -5.5323   -3.7319 H         1 UNK         0.0906 
     74 H74        26.5740   -6.4226   -2.2659 H         1 UNK         0.0906 
     75 H75        27.9624   -3.5832   -3.1331 H         1 UNK         0.3140 
     76 H76        27.1565   -2.1732   -0.6717 H         1 UNK         0.1085 
     77 H77        29.0877   -0.5936   -1.5542 H         1 UNK         0.0836 
     78 H78        29.5170   -1.9102   -2.6027 H         1 UNK         0.0836 
     79 H79        30.8879   -4.5550    0.0294 H         1 UNK         0.0731 
     80 H80        29.3138   -4.6549   -0.7119 H         1 UNK         0.0731 
     81 H81        32.5974   -2.9587   -1.5603 H         1 UNK         0.1312 
     82 H82        32.6547   -4.5651   -5.5367 H         1 UNK         0.1406 
     83 H83        29.4124   -5.5007   -2.9115 H         1 UNK         0.1631 
     84 H84        29.9676   -6.8382   -5.1343 H         1 UNK         0.0717 
     85 H85        30.9534   -6.0067   -6.3110 H         1 UNK         0.0717 
     86 H86        29.6319   -2.8742   -5.2733 H         1 UNK         0.0934 
     87 H87        30.3517   -3.2791   -6.8151 H         1 UNK         0.0934 
     88 H88        28.4366   -2.5268   -8.0611 H         1 UNK         0.0739 
     89 H89        26.8951   -3.2724   -5.9500 H         1 UNK         0.3093 
     90 H90        23.9916   -2.4922   -7.3199 H         1 UNK         0.0818 
     91 H91        23.6288   -3.8296   -5.2516 H         1 UNK         0.0819 
     92 H92        25.0919   -4.3699   -6.0481 H         1 UNK         0.0819 
     93 H93        25.1884   -3.3356   -4.6158 H         1 UNK         0.0819 
     94 H94        24.6343   -0.5939   -5.1760 H         1 UNK         0.3041 
     95 H95        22.1690    1.2006   -5.5636 H         1 UNK         0.0784 
     96 H96        20.1273    0.0508   -4.8529 H         1 UNK         0.0793 
     97 H97        20.9293   -0.6351   -3.4507 H         1 UNK         0.0793 
     98 H98        20.6614    1.1047   -3.5554 H         1 UNK         0.0793 
     99 H99        23.7412    1.7386   -4.1164 H         1 UNK         0.3024 
    100 H100       25.5592    1.4252   -2.8607 H         1 UNK         0.1171 
    101 H101       23.8970    2.4554   -1.2948 H         1 UNK         0.0786 
    102 H102       25.4218    2.1527   -0.4798 H         1 UNK         0.0786 
    103 H103       24.0466    1.0811   -0.2093 H         1 UNK         0.0786 
    104 H104       25.9982   -0.3495   -0.6612 H         1 UNK         0.2977 
    105 H105       27.9685   -0.6123   -5.0687 H         1 UNK         0.3127 
    106 H106       30.0180    1.3188   -5.7481 H         1 UNK         0.0770 
    107 H107       27.7990    1.4782   -3.6576 H         1 UNK         0.0814 
    108 H108       29.1673    2.5682   -3.7939 H         1 UNK         0.0814 
    109 H109       29.4400    0.8826   -3.3927 H         1 UNK         0.0814 
    110 H110       26.5137    1.0717   -6.2318 H         1 UNK         0.2983 
    111 H111       26.1530    3.8067   -7.1643 H         1 UNK         0.0947 
    112 H112       24.2653    2.5880   -6.1362 H         1 UNK         0.0806 
    113 H113       24.3418    1.3404   -7.3861 H         1 UNK         0.0806 
    114 H114       23.8794    2.9836   -7.8000 H         1 UNK         0.0806 
    115 H115       26.7812    0.6456   -8.6353 H         1 UNK         0.3000 
    116 H116       26.4205    1.3116  -11.3397 H         1 UNK         0.0850 
    117 H117       27.8070   -0.7220  -11.7766 H         1 UNK         0.0810 
    118 H118       26.6008   -1.0162  -10.5339 H         1 UNK         0.0810 
    119 H119       28.2860   -0.7748  -10.0862 H         1 UNK         0.0810 
    120 H120       29.5632    1.2199   -9.5267 H         1 UNK         0.3040 
    121 H121       30.6233    3.4799  -11.0133 H         1 UNK         0.0766 
    122 H122       30.8546    1.7170  -12.7857 H         1 UNK         0.0812 
    123 H123       32.4250    2.2196  -12.2088 H         1 UNK         0.0812 
    124 H124       31.7435    0.6937  -11.6605 H         1 UNK         0.0812 
    125 H125       30.2818    3.0136   -8.2166 H         1 UNK         0.3205 
    126 H126       31.3124    3.1078   -6.2431 H         1 UNK         0.0754 
    127 H127       33.3543    4.4483   -6.0913 H         1 UNK         0.0769 
    128 H128       32.2998    5.1386   -7.3115 H         1 UNK         0.0769 
    129 H129       33.7096    4.1954   -7.7934 H         1 UNK         0.0769 
    130 H130       31.5374    0.5742   -7.6772 H         1 UNK         0.2981 
    131 H131       32.6205   -1.1918   -8.1282 H         1 UNK         0.0541 
    132 H132       34.2582    1.0492   -8.9700 H         1 UNK         0.3459 
    133 H133       35.8668    0.3681   -9.0840 H         1 UNK         0.3459 
    134 H134       33.2406   -2.6565   -6.4164 H         1 UNK         0.0612 
    135 H135       31.8588   -1.7334   -5.8966 H         1 UNK         0.0612 
    136 H136       34.6831   -3.4845   -4.5694 H         1 UNK         0.0624 
    137 H137       34.6505   -2.8317   -2.9516 H         1 UNK         0.0624 
@<TRIPOS>BOND
     1    1    2 1    
     2    1   72 1    
     3    1   73 1    
     4    1   74 1    
     5    2    3 2    
     6    2    4 am   BACKBONE|DICT|INTERRES
     7    4    5 1    
     8    4   75 1    
     9    5    6 1    
    10    5   35 1    
    11    5   76 1    
    12    6    7 1    
    13    6   77 1    
    14    6   78 1    
    15    7    8 1    
    16    8    9 1    
    17    8   79 1    
    18    8   80 1    
    19    9   10 ar   
    20    9   14 ar   
    21   10   11 ar   
    22   10   81 1    
    23   11   12 ar   
    24   11   71 1    
    25   12   13 ar   
    26   12   82 1    
    27   13   14 ar   
    28   13   15 1    
    29   14   83 1    
    30   15   16 1    
    31   15   84 1    
    32   15   85 1    
    33   16   17 1    
    34   17   18 1    
    35   17   86 1    
    36   17   87 1    
    37   18   19 1    
    38   18   37 1    
    39   18   88 1    
    40   19   20 am   BACKBONE|DICT|INTERRES
    41   19   89 1    
    42   20   21 2    
    43   20   22 1    
    44   22   23 1    
    45   22   24 1    
    46   22   90 1    
    47   23   91 1    
    48   23   92 1    
    49   23   93 1    
    50   24   25 am   BACKBONE|DICT|INTERRES
    51   24   94 1    
    52   25   26 2    
    53   25   27 1    
    54   27   28 1    
    55   27   29 1    
    56   27   95 1    
    57   28   96 1    
    58   28   97 1    
    59   28   98 1    
    60   29   30 am   BACKBONE|DICT|INTERRES
    61   29   99 1    
    62   30   31 2    
    63   30   32 1    
    64   32   33 1    
    65   32   34 1    
    66   32  100 1    
    67   33  101 1    
    68   33  102 1    
    69   33  103 1    
    70   34   35 am   BACKBONE|DICT|INTERRES
    71   34  104 1    
    72   35   36 2    
    73   37   38 2    
    74   37   39 am   BACKBONE|DICT|INTERRES
    75   39   40 1    
    76   39  105 1    
    77   40   41 1    
    78   40   42 1    
    79   40  106 1    
    80   41  107 1    
    81   41  108 1    
    82   41  109 1    
    83   42   43 2    
    84   42   44 am   BACKBONE|DICT|INTERRES
    85   44   45 1    
    86   44  110 1    
    87   45   46 1    
    88   45   47 1    
    89   45  111 1    
    90   46  112 1    
    91   46  113 1    
    92   46  114 1    
    93   47   48 2    
    94   47   49 am   BACKBONE|DICT|INTERRES
    95   49   50 1    
    96   49  115 1    
    97   50   51 1    
    98   50   52 1    
    99   50  116 1    
   100   51  117 1    
   101   51  118 1    
   102   51  119 1    
   103   52   53 2    
   104   52   54 am   BACKBONE|DICT|INTERRES
   105   54   55 1    
   106   54  120 1    
   107   55   56 1    
   108   55   57 1    
   109   55  121 1    
   110   56  122 1    
   111   56  123 1    
   112   56  124 1    
   113   57   58 2    
   114   57   59 am   BACKBONE|DICT|INTERRES
   115   59   60 1    
   116   59  125 1    
   117   60   61 1    
   118   60   62 1    
   119   60  126 1    
   120   61  127 1    
   121   61  128 1    
   122   61  129 1    
   123   62   63 2    
   124   62   64 am   BACKBONE|DICT|INTERRES
   125   64   65 1    
   126   64  130 1    
   127   65   66 1    
   128   65   69 1    
   129   65  131 1    
   130   66   67 am   BACKBONE|DICT|INTERRES
   131   66   68 2    
   132   67  132 1    
   133   67  133 1    
   134   69   70 1    
   135   69  134 1    
   136   69  135 1    
   137   70   71 1    
   138   71  136 1    
   139   71  137 1    
@<TRIPOS>SUBSTRUCTURE
     1 UNK         1 GROUP             0       ****    0 ROOT    
