@<TRIPOS>MOLECULE
3R137
137   139    1
SMALL
USER_CHARGES


@<TRIPOS>ATOM
      1 CA         25.0058   -5.1287   -1.6144 C.3       0 UNK        -0.2020 
      2 C          25.7443   -4.9683   -0.2854 C.2       0 UNK         0.4855 
      3 O          25.2866   -5.5240    0.7107 O.2       0 UNK        -0.5197 
      4 N          26.8671   -4.2381   -0.1856 N.am      1 UNK        -0.4892 
      5 CA         27.5972   -3.4805   -1.2152 C.3       1 UNK         0.0835 
      6 C6         28.1913   -4.3593   -2.3536 C.3       12 UNK        -0.0855 
      7 S7         29.5951   -5.3922   -1.8141 S.3       12 UNK        -0.2931 
      8 C8         30.9729   -4.1965   -1.6400 C.3       12 UNK         0.0378 
      9 C9         31.0115   -3.1238   -2.7249 C.ar      12 UNK        -0.0802 
     10 C10        31.2870   -3.4620   -4.0530 C.ar      12 UNK        -0.0944 
     11 C11        31.3077   -2.4781   -5.0480 C.ar      12 UNK        -0.0787 
     12 C12        31.0347   -1.1480   -4.7094 C.ar      12 UNK        -0.0862 
     13 C13        30.7634   -0.7947   -3.3843 C.ar      12 UNK        -0.0733 
     14 C14        30.7644   -1.7868   -2.3976 C.ar      12 UNK        -0.0832 
     15 C15        30.4913    0.6574   -3.0079 C.3       12 UNK         0.0240 
     16 S16        28.8626    0.8473   -2.2133 S.3       12 UNK        -0.2522 
     17 C17        27.9734    2.0327   -3.2764 C.3       12 UNK        -0.0967 
     18 CA         27.8071    1.6351   -4.7678 C.3       5 UNK         0.0660 
     19 N          27.3846    0.2472   -4.9808 N.am      5 UNK        -0.4015 
     20 C          27.3208   -0.3455   -6.1844 C.2       4 UNK         0.4946 
     21 O          27.7105    0.1781   -7.2291 O.2       4 UNK        -0.5353 
     22 CA         26.6701   -1.7348   -6.2481 C.3       4 UNK         0.0277 
     23 CB         27.7065   -2.8368   -5.9820 C.3       4 UNK        -0.1981 
     24 N          25.5629   -1.8502   -5.2977 N.am      4 UNK        -0.4209 
     25 C          24.3528   -1.3021   -5.4768 C.2       3 UNK         0.4942 
     26 O          24.0320   -0.6754   -6.4856 O.2       3 UNK        -0.5208 
     27 CA         23.3361   -1.4490   -4.3294 C.3       3 UNK         0.0250 
     28 CB         22.5720   -2.7767   -4.4548 C.3       3 UNK        -0.1990 
     29 N          23.9408   -1.3589   -2.9977 N.am      3 UNK        -0.4232 
     30 C          24.5475   -0.2674   -2.5115 C.2       2 UNK         0.4993 
     31 O          24.6290    0.7991   -3.1205 O.2       2 UNK        -0.5286 
     32 CA         25.2321   -0.4051   -1.1397 C.3       2 UNK         0.0209 
     33 CB         24.2192   -0.1656   -0.0088 C.3       2 UNK        -0.1931 
     34 N          25.9348   -1.6777   -0.9072 N.am      2 UNK        -0.4546 
     35 C          26.8287   -2.2443   -1.7336 C.2       1 UNK         0.5154 
     36 O          27.0489   -1.8275   -2.8696 O.2       1 UNK        -0.5181 
     37 C          26.8481    2.6184   -5.4702 C.2       5 UNK         0.5014 
     38 O          27.3114    3.5061   -6.1860 O.2       5 UNK        -0.5248 
     39 N          25.5330    2.4192   -5.2847 N.am      6 UNK        -0.4434 
     40 CA         24.4635    3.1954   -5.9211 C.3       6 UNK         0.0363 
     41 CB         23.1065    2.7852   -5.3278 C.3       6 UNK        -0.1936 
     42 C          24.4443    3.0650   -7.4540 C.2       6 UNK         0.5081 
     43 O          24.1959    4.0558   -8.1411 O.2       6 UNK        -0.5248 
     44 N          24.7390    1.8614   -7.9648 N.am      7 UNK        -0.4718 
     45 CA         24.9087    1.5801   -9.3945 C.3       7 UNK         0.0273 
     46 CB         24.8232    0.0615   -9.6190 C.3       7 UNK        -0.1935 
     47 C          26.2221    2.1312   -9.9852 C.2       7 UNK         0.5018 
     48 O          26.3597    2.1418  -11.2092 O.2       7 UNK        -0.5186 
     49 N          27.1551    2.5585   -9.1203 N.am      8 UNK        -0.4240 
     50 CA         28.5068    3.0405   -9.4182 C.3       8 UNK         0.0235 
     51 CB         28.4615    4.3717  -10.1988 C.3       8 UNK        -0.2000 
     52 C          29.3777    1.9641  -10.0926 C.2       8 UNK         0.4941 
     53 O          30.0653    2.2520  -11.0753 O.2       8 UNK        -0.5273 
     54 N          29.3249    0.7360   -9.5565 N.am      9 UNK        -0.4262 
     55 CA         30.1305   -0.4013  -10.0035 C.3       9 UNK         0.0264 
     56 CB         29.6199   -1.6773   -9.3202 C.3       9 UNK        -0.1955 
     57 C          31.6280   -0.1783   -9.7248 C.2       9 UNK         0.5031 
     58 O          31.9883    0.3273   -8.6577 O.2       9 UNK        -0.5390 
     59 N          32.4727   -0.5611  -10.6897 N.am      10 UNK        -0.4204 
     60 CA         33.9100   -0.2752  -10.7331 C.3       10 UNK         0.0237 
     61 CB         34.3781   -0.3366  -12.2004 C.3       10 UNK        -0.1985 
     62 C          34.7615   -1.1641   -9.8022 C.2       10 UNK         0.4970 
     63 O          35.7216   -1.7867  -10.2608 O.2       10 UNK        -0.4914 
     64 N          34.4179   -1.1902   -8.5100 N.am      11 UNK        -0.4285 
     65 CA         35.2287   -1.8127   -7.4481 C.3       11 UNK         0.1007 
     66 C          36.4215   -0.9329   -6.9695 C.2       11 UNK         0.5703 
     67 N          36.5168    0.3353   -7.3539 N.am      11 UNK        -0.7361 
     68 O          37.2879   -1.4162   -6.2444 O.2       11 UNK        -0.4986 
     69 C69        34.3624   -2.2743   -6.2492 C.3       12 UNK        -0.0947 
     70 S70        33.2355   -3.6362   -6.6960 S.3       12 UNK        -0.2240 
     71 C71        31.6083   -2.8501   -6.4940 C.3       12 UNK         0.0194 
     72 H72        25.2210   -4.3499   -2.3402 H         1 UNK         0.0906 
     73 H73        25.2598   -6.0889   -2.0624 H         1 UNK         0.0906 
     74 H74        23.9296   -5.1190   -1.4426 H         1 UNK         0.0906 
     75 H75        27.2982   -4.1955    0.7280 H         1 UNK         0.3140 
     76 H76        28.4425   -3.0344   -0.6901 H         1 UNK         0.1085 
     77 H77        28.5396   -3.7597   -3.1911 H         1 UNK         0.0836 
     78 H78        27.4375   -5.0161   -2.7844 H         1 UNK         0.0836 
     79 H79        31.9152   -4.7460   -1.6500 H         1 UNK         0.0731 
     80 H80        30.9068   -3.7368   -0.6528 H         1 UNK         0.0731 
     81 H81        31.4818   -4.4936   -4.3130 H         1 UNK         0.1312 
     82 H82        31.0396   -0.3868   -5.4782 H         1 UNK         0.1406 
     83 H83        30.5568   -1.5116   -1.3726 H         1 UNK         0.1631 
     84 H84        30.5734    1.3113   -3.8759 H         1 UNK         0.0717 
     85 H85        31.2597    0.9883   -2.3082 H         1 UNK         0.0717 
     86 H86        26.9971    2.1828   -2.8113 H         1 UNK         0.0934 
     87 H87        28.4830    2.9956   -3.2046 H         1 UNK         0.0934 
     88 H88        28.7782    1.7409   -5.2545 H         1 UNK         0.0739 
     89 H89        27.1246   -0.2873   -4.1573 H         1 UNK         0.3093 
     90 H90        26.2721   -1.8817   -7.2540 H         1 UNK         0.0818 
     91 H91        28.3102   -2.6164   -5.1025 H         1 UNK         0.0819 
     92 H92        27.2366   -3.8096   -5.8375 H         1 UNK         0.0819 
     93 H93        28.3916   -2.9335   -6.8227 H         1 UNK         0.0819 
     94 H94        25.7948   -2.2382   -4.3909 H         1 UNK         0.3041 
     95 H95        22.6177   -0.6318   -4.4228 H         1 UNK         0.0784 
     96 H96        23.2325   -3.6375   -4.3429 H         1 UNK         0.0793 
     97 H97        22.0927   -2.8588   -5.4315 H         1 UNK         0.0793 
     98 H98        21.7861   -2.8553   -3.7034 H         1 UNK         0.0793 
     99 H99        23.9172   -2.1876   -2.4230 H         1 UNK         0.3024 
    100 H100       25.9862    0.3831   -1.0895 H         1 UNK         0.1171 
    101 H101       24.7122   -0.1164    0.9623 H         1 UNK         0.0786 
    102 H102       23.6926    0.7798   -0.1491 H         1 UNK         0.0786 
    103 H103       23.4675   -0.9546    0.0351 H         1 UNK         0.0786 
    104 H104       25.8066   -2.1015    0.0009 H         1 UNK         0.2977 
    105 H105       25.2367    1.7015   -4.6243 H         1 UNK         0.3127 
    106 H106       24.6356    4.2471   -5.6830 H         1 UNK         0.0770 
    107 H107       22.8890    1.7323   -5.5104 H         1 UNK         0.0814 
    108 H108       22.2955    3.3678   -5.7666 H         1 UNK         0.0814 
    109 H109       23.0784    2.9498   -4.2505 H         1 UNK         0.0814 
    110 H110       24.8505    1.0764   -7.3317 H         1 UNK         0.2983 
    111 H111       24.0870    2.0531   -9.9365 H         1 UNK         0.0947 
    112 H112       24.8902   -0.1828  -10.6800 H         1 UNK         0.0806 
    113 H113       23.8791   -0.3428   -9.2534 H         1 UNK         0.0806 
    114 H114       25.6331   -0.4638   -9.1126 H         1 UNK         0.0806 
    115 H115       26.9378    2.4888   -8.1334 H         1 UNK         0.3000 
    116 H116       28.9741    3.2428   -8.4532 H         1 UNK         0.0850 
    117 H117       29.4617    4.7918  -10.3107 H         1 UNK         0.0810 
    118 H118       27.8549    5.1137   -9.6796 H         1 UNK         0.0810 
    119 H119       28.0504    4.2424  -11.2004 H         1 UNK         0.0810 
    120 H120       28.7426    0.5860   -8.7337 H         1 UNK         0.3040 
    121 H121       29.9865   -0.5077  -11.0808 H         1 UNK         0.0766 
    122 H122       29.6234   -1.5675   -8.2372 H         1 UNK         0.0812 
    123 H123       30.2378   -2.5405   -9.5712 H         1 UNK         0.0812 
    124 H124       28.5983   -1.9059   -9.6242 H         1 UNK         0.0812 
    125 H125       32.0902   -1.0152  -11.5070 H         1 UNK         0.3205 
    126 H126       34.0563    0.7522  -10.3923 H         1 UNK         0.0754 
    127 H127       33.8149    0.3560  -12.8265 H         1 UNK         0.0769 
    128 H128       34.2647   -1.3374  -12.6193 H         1 UNK         0.0769 
    129 H129       35.4303   -0.0623  -12.2894 H         1 UNK         0.0769 
    130 H130       33.6039   -0.6547   -8.2224 H         1 UNK         0.2981 
    131 H131       35.6916   -2.7092   -7.8653 H         1 UNK         0.0541 
    132 H132       35.8120    0.7484   -7.9423 H         1 UNK         0.3459 
    133 H133       37.2992    0.8872   -7.0394 H         1 UNK         0.3459 
    134 H134       33.8028   -1.4327   -5.8384 H         1 UNK         0.0612 
    135 H135       34.9891   -2.6449   -5.4359 H         1 UNK         0.0612 
    136 H136       30.8380   -3.5313   -6.8567 H         1 UNK         0.0624 
    137 H137       31.5793   -1.9684   -7.1330 H         1 UNK         0.0624 
@<TRIPOS>BOND
     1    1    2 1    
     2    1   72 1    
     3    1   73 1    
     4    1   74 1    
     5    2    3 2    
     6    2    4 am   BACKBONE|DICT|INTERRES
     7    4    5 1    
     8    4   75 1    
     9    5    6 1    
    10    5   35 1    
    11    5   76 1    
    12    6    7 1    
    13    6   77 1    
    14    6   78 1    
    15    7    8 1    
    16    8    9 1    
    17    8   79 1    
    18    8   80 1    
    19    9   10 ar   
    20    9   14 ar   
    21   10   11 ar   
    22   10   81 1    
    23   11   12 ar   
    24   11   71 1    
    25   12   13 ar   
    26   12   82 1    
    27   13   14 ar   
    28   13   15 1    
    29   14   83 1    
    30   15   16 1    
    31   15   84 1    
    32   15   85 1    
    33   16   17 1    
    34   17   18 1    
    35   17   86 1    
    36   17   87 1    
    37   18   19 1    
    38   18   37 1    
    39   18   88 1    
    40   19   20 am   BACKBONE|DICT|INTERRES
    41   19   89 1    
    42   20   21 2    
    43   20   22 1    
    44   22   23 1    
    45   22   24 1    
    46   22   90 1    
    47   23   91 1    
    48   23   92 1    
    49   23   93 1    
    50   24   25 am   BACKBONE|DICT|INTERRES
    51   24   94 1    
    52   25   26 2    
    53   25   27 1    
    54   27   28 1    
    55   27   29 1    
    56   27   95 1    
    57   28   96 1    
    58   28   97 1    
    59   28   98 1    
    60   29   30 am   BACKBONE|DICT|INTERRES
    61   29   99 1    
    62   30   31 2    
    63   30   32 1    
    64   32   33 1    
    65   32   34 1    
    66   32  100 1    
    67   33  101 1    
    68   33  102 1    
    69   33  103 1    
    70   34   35 am   BACKBONE|DICT|INTERRES
    71   34  104 1    
    72   35   36 2    
    73   37   38 2    
    74   37   39 am   BACKBONE|DICT|INTERRES
    75   39   40 1    
    76   39  105 1    
    77   40   41 1    
    78   40   42 1    
    79   40  106 1    
    80   41  107 1    
    81   41  108 1    
    82   41  109 1    
    83   42   43 2    
    84   42   44 am   BACKBONE|DICT|INTERRES
    85   44   45 1    
    86   44  110 1    
    87   45   46 1    
    88   45   47 1    
    89   45  111 1    
    90   46  112 1    
    91   46  113 1    
    92   46  114 1    
    93   47   48 2    
    94   47   49 am   BACKBONE|DICT|INTERRES
    95   49   50 1    
    96   49  115 1    
    97   50   51 1    
    98   50   52 1    
    99   50  116 1    
   100   51  117 1    
   101   51  118 1    
   102   51  119 1    
   103   52   53 2    
   104   52   54 am   BACKBONE|DICT|INTERRES
   105   54   55 1    
   106   54  120 1    
   107   55   56 1    
   108   55   57 1    
   109   55  121 1    
   110   56  122 1    
   111   56  123 1    
   112   56  124 1    
   113   57   58 2    
   114   57   59 am   BACKBONE|DICT|INTERRES
   115   59   60 1    
   116   59  125 1    
   117   60   61 1    
   118   60   62 1    
   119   60  126 1    
   120   61  127 1    
   121   61  128 1    
   122   61  129 1    
   123   62   63 2    
   124   62   64 am   BACKBONE|DICT|INTERRES
   125   64   65 1    
   126   64  130 1    
   127   65   66 1    
   128   65   69 1    
   129   65  131 1    
   130   66   67 am   BACKBONE|DICT|INTERRES
   131   66   68 2    
   132   67  132 1    
   133   67  133 1    
   134   69   70 1    
   135   69  134 1    
   136   69  135 1    
   137   70   71 1    
   138   71  136 1    
   139   71  137 1    
@<TRIPOS>SUBSTRUCTURE
     1 UNK         1 GROUP             0       ****    0 ROOT    
