@<TRIPOS>MOLECULE
3R137
137   139    1
SMALL
USER_CHARGES


@<TRIPOS>ATOM
      1 CA         27.7483   -1.6514    2.6315 C.3       0 UNK        -0.2020 
      2 C          27.8822   -1.6521    1.1163 C.2       0 UNK         0.4855 
      3 O          28.3141   -0.6545    0.5390 O.2       0 UNK        -0.5197 
      4 N          27.5132   -2.7634    0.4660 N.am      1 UNK        -0.4892 
      5 CA         27.5889   -2.9386   -0.9909 C.3       1 UNK         0.0835 
      6 C6         27.6120   -4.4324   -1.4005 C.3       12 UNK        -0.0855 
      7 S7         29.1054   -5.2805   -0.7843 S.3       12 UNK        -0.2931 
      8 C8         29.9847   -5.6828   -2.3372 C.3       12 UNK         0.0378 
      9 C9         30.3808   -4.4731   -3.1852 C.ar      12 UNK        -0.0802 
     10 C10        30.3391   -4.5712   -4.5811 C.ar      12 UNK        -0.0944 
     11 C11        30.7330   -3.4954   -5.3818 C.ar      12 UNK        -0.0787 
     12 C12        31.1632   -2.3128   -4.7795 C.ar      12 UNK        -0.0862 
     13 C13        31.1718   -2.1796   -3.3894 C.ar      12 UNK        -0.0733 
     14 C14        30.8123   -3.2758   -2.5992 C.ar      12 UNK        -0.0832 
     15 C15        31.5537   -0.8558   -2.7304 C.3       12 UNK         0.0240 
     16 S16        30.8618    0.6197   -3.5658 S.3       12 UNK        -0.2522 
     17 C17        29.0815    0.2210   -3.6814 C.3       12 UNK        -0.0967 
     18 CA         28.6156    0.0565   -5.1541 C.3       5 UNK         0.0660 
     19 N          27.5187   -0.9054   -5.2901 N.am      5 UNK        -0.4015 
     20 C          27.0363   -1.3560   -6.4555 C.2       4 UNK         0.4946 
     21 O          27.4626   -1.0078   -7.5560 O.2       4 UNK        -0.5353 
     22 CA         25.8562   -2.3388   -6.3920 C.3       4 UNK         0.0277 
     23 CB         26.3651   -3.7550   -6.0736 C.3       4 UNK        -0.1981 
     24 N          24.7818   -1.9782   -5.4563 N.am      4 UNK        -0.4209 
     25 C          24.1702   -0.7876   -5.3485 C.2       3 UNK         0.4942 
     26 O          24.5167    0.2196   -5.9641 O.2       3 UNK        -0.5208 
     27 CA         22.9511   -0.6892   -4.4102 C.3       3 UNK         0.0250 
     28 CB         21.6719   -0.5068   -5.2439 C.3       3 UNK        -0.1990 
     29 N          22.7820   -1.8656   -3.5483 N.am      3 UNK        -0.4232 
     30 C          23.3730   -2.1255   -2.3726 C.2       2 UNK         0.4993 
     31 O          23.1800   -3.1913   -1.7867 O.2       2 UNK        -0.5286 
     32 CA         24.2819   -1.0733   -1.7010 C.3       2 UNK         0.0209 
     33 CB         23.4998   -0.2790   -0.6427 C.3       2 UNK        -0.1931 
     34 N          25.4300   -1.7214   -1.0663 N.am      2 UNK        -0.4546 
     35 C          26.4801   -2.1887   -1.7532 C.2       1 UNK         0.5154 
     36 O          26.5981   -2.0394   -2.9682 O.2       1 UNK        -0.5181 
     37 C          28.2894    1.4146   -5.8032 C.2       5 UNK         0.5014 
     38 O          29.1369    1.9661   -6.5066 O.2       5 UNK        -0.5248 
     39 N          27.0620    1.9074   -5.5889 N.am      6 UNK        -0.4434 
     40 CA         26.5615    3.1493   -6.1768 C.3       6 UNK         0.0363 
     41 CB         25.3253    3.6287   -5.3988 C.3       6 UNK        -0.1936 
     42 C          26.2392    2.9878   -7.6697 C.2       6 UNK         0.5081 
     43 O          26.5591    3.8803   -8.4537 O.2       6 UNK        -0.5248 
     44 N          25.6313    1.8506   -8.0357 N.am      7 UNK        -0.4718 
     45 CA         25.2508    1.5044   -9.4070 C.3       7 UNK         0.0273 
     46 CB         24.3886    0.2321   -9.3950 C.3       7 UNK        -0.1935 
     47 C          26.4578    1.3393  -10.3447 C.2       7 UNK         0.5018 
     48 O          26.4298    1.8600  -11.4605 O.2       7 UNK        -0.5186 
     49 N          27.4989    0.6392   -9.8734 N.am      8 UNK        -0.4240 
     50 CA         28.7568    0.4503  -10.6002 C.3       8 UNK         0.0235 
     51 CB         29.4661   -0.8031  -10.0626 C.3       8 UNK        -0.2000 
     52 C          29.7008    1.6614  -10.5081 C.2       8 UNK         0.4941 
     53 O          30.6329    1.7406  -11.3086 O.2       8 UNK        -0.5273 
     54 N          29.4699    2.5487   -9.5262 N.am      9 UNK        -0.4262 
     55 CA         30.3365    3.6568   -9.1029 C.3       9 UNK         0.0264 
     56 CB         30.4268    4.7444  -10.1947 C.3       9 UNK        -0.1955 
     57 C          31.7100    3.1345   -8.6349 C.2       9 UNK         0.5031 
     58 O          32.7444    3.5979   -9.1188 O.2       9 UNK        -0.5390 
     59 N          31.6575    2.1569   -7.7160 N.am      10 UNK        -0.4204 
     60 CA         32.7317    1.2900   -7.2196 C.3       10 UNK         0.0237 
     61 CB         33.8489    2.0966   -6.5277 C.3       10 UNK        -0.1985 
     62 C          33.2751    0.3686   -8.3287 C.2       10 UNK         0.4970 
     63 O          34.0515    0.8111   -9.1764 O.2       10 UNK        -0.4914 
     64 N          32.8582   -0.9046   -8.2974 N.am      11 UNK        -0.4285 
     65 CA         33.2653   -1.9507   -9.2535 C.3       11 UNK         0.1007 
     66 C          34.7725   -2.3505   -9.2221 C.2       11 UNK         0.5703 
     67 N          35.5360   -1.9985   -8.1940 N.am      11 UNK        -0.7361 
     68 O          35.2575   -2.9847  -10.1564 O.2       11 UNK        -0.4986 
     69 C69        32.3376   -3.1960   -9.1752 C.3       12 UNK        -0.0947 
     70 S70        32.3463   -4.0135   -7.5415 S.3       12 UNK        -0.2240 
     71 C71        30.6990   -3.5923   -6.8974 C.3       12 UNK         0.0194 
     72 H72        27.3570   -2.5964    3.0077 H         1 UNK         0.0906 
     73 H73        28.7204   -1.4797    3.0931 H         1 UNK         0.0906 
     74 H74        27.0754   -0.8550    2.9484 H         1 UNK         0.0906 
     75 H75        27.1866   -3.5650    0.9880 H         1 UNK         0.3140 
     76 H76        28.5208   -2.4841   -1.3290 H         1 UNK         0.1085 
     77 H77        26.7312   -4.9506   -1.0168 H         1 UNK         0.0836 
     78 H78        27.5722   -4.5393   -2.4868 H         1 UNK         0.0836 
     79 H79        29.3579   -6.3626   -2.9167 H         1 UNK         0.0731 
     80 H80        30.8898   -6.2380   -2.0883 H         1 UNK         0.0731 
     81 H81        30.0135   -5.4909   -5.0479 H         1 UNK         0.1312 
     82 H82        31.4730   -1.4828   -5.3961 H         1 UNK         0.1406 
     83 H83        30.8536   -3.1913   -1.5219 H         1 UNK         0.1631 
     84 H84        32.6409   -0.7723   -2.7116 H         1 UNK         0.0717 
     85 H85        31.2227   -0.8407   -1.6905 H         1 UNK         0.0717 
     86 H86        28.9048   -0.6985   -3.1241 H         1 UNK         0.0934 
     87 H87        28.5062    0.9854   -3.1553 H         1 UNK         0.0934 
     88 H88        29.4367   -0.3659   -5.7340 H         1 UNK         0.0739 
     89 H89        27.1215   -1.2832   -4.4286 H         1 UNK         0.3093 
     90 H90        25.4076   -2.3617   -7.3864 H         1 UNK         0.0818 
     91 H91        27.1521   -4.0528   -6.7682 H         1 UNK         0.0819 
     92 H92        26.7807   -3.8197   -5.0671 H         1 UNK         0.0819 
     93 H93        25.5675   -4.4933   -6.1560 H         1 UNK         0.0819 
     94 H94        24.4388   -2.7274   -4.8738 H         1 UNK         0.3041 
     95 H95        23.0635    0.2093   -3.8021 H         1 UNK         0.0784 
     96 H96        21.7398    0.3797   -5.8766 H         1 UNK         0.0793 
     97 H97        21.4887   -1.3596   -5.8989 H         1 UNK         0.0793 
     98 H98        20.7970   -0.3788   -4.6060 H         1 UNK         0.0793 
     99 H99        22.1659   -2.5763   -3.9167 H         1 UNK         0.3024 
    100 H100       24.6763   -0.3719   -2.4361 H         1 UNK         0.1171 
    101 H101       22.6570    0.2464   -1.0941 H         1 UNK         0.0786 
    102 H102       23.0990   -0.9288    0.1365 H         1 UNK         0.0786 
    103 H103       24.1294    0.4711   -0.1635 H         1 UNK         0.0786 
    104 H104       25.3752   -1.9067   -0.0757 H         1 UNK         0.2977 
    105 H105       26.3926    1.3425   -5.0843 H         1 UNK         0.3127 
    106 H106       27.3380    3.9120   -6.0830 H         1 UNK         0.0770 
    107 H107       24.5089    2.9069   -5.4460 H         1 UNK         0.0814 
    108 H108       24.9513    4.5690   -5.8060 H         1 UNK         0.0814 
    109 H109       25.5601    3.8020   -4.3486 H         1 UNK         0.0814 
    110 H110       25.3660    1.1900   -7.3076 H         1 UNK         0.2983 
    111 H111       24.6422    2.3237   -9.7960 H         1 UNK         0.0947 
    112 H112       24.0558   -0.0239  -10.4017 H         1 UNK         0.0806 
    113 H113       23.4974    0.3623   -8.7806 H         1 UNK         0.0806 
    114 H114       24.9401   -0.6236   -9.0054 H         1 UNK         0.0806 
    115 H115       27.4256    0.1881   -8.9618 H         1 UNK         0.3000 
    116 H116       28.5313    0.2869  -11.6563 H         1 UNK         0.0850 
    117 H117       30.3740   -1.0076  -10.6314 H         1 UNK         0.0810 
    118 H118       28.8294   -1.6849  -10.1362 H         1 UNK         0.0810 
    119 H119       29.7549   -0.6846   -9.0175 H         1 UNK         0.0810 
    120 H120       28.6746    2.3764   -8.9257 H         1 UNK         0.3040 
    121 H121       29.8591    4.1060   -8.2304 H         1 UNK         0.0766 
    122 H122       30.9337    4.3837  -11.0901 H         1 UNK         0.0812 
    123 H123       30.9836    5.6100   -9.8342 H         1 UNK         0.0812 
    124 H124       29.4364    5.0935  -10.4867 H         1 UNK         0.0812 
    125 H125       30.7289    1.9440   -7.3495 H         1 UNK         0.3205 
    126 H126       32.2734    0.6635   -6.4531 H         1 UNK         0.0754 
    127 H127       34.5883    1.4301   -6.0824 H         1 UNK         0.0769 
    128 H128       33.4482    2.7184   -5.7270 H         1 UNK         0.0769 
    129 H129       34.3794    2.7468   -7.2238 H         1 UNK         0.0769 
    130 H130       32.2484   -1.2112   -7.5570 H         1 UNK         0.2981 
    131 H131       33.1137   -1.5199  -10.2452 H         1 UNK         0.0541 
    132 H132       36.5091   -2.2600   -8.1904 H         1 UNK         0.3459 
    133 H133       35.1481   -1.4836   -7.4212 H         1 UNK         0.3459 
    134 H134       32.6281   -3.9348   -9.9242 H         1 UNK         0.0612 
    135 H135       31.3164   -2.9179   -9.4344 H         1 UNK         0.0612 
    136 H136       30.3578   -2.6417   -7.3105 H         1 UNK         0.0624 
    137 H137       29.9797   -4.3452   -7.2231 H         1 UNK         0.0624 
@<TRIPOS>BOND
     1    1    2 1    
     2    1   72 1    
     3    1   73 1    
     4    1   74 1    
     5    2    3 2    
     6    2    4 am   BACKBONE|DICT|INTERRES
     7    4    5 1    
     8    4   75 1    
     9    5    6 1    
    10    5   35 1    
    11    5   76 1    
    12    6    7 1    
    13    6   77 1    
    14    6   78 1    
    15    7    8 1    
    16    8    9 1    
    17    8   79 1    
    18    8   80 1    
    19    9   10 ar   
    20    9   14 ar   
    21   10   11 ar   
    22   10   81 1    
    23   11   12 ar   
    24   11   71 1    
    25   12   13 ar   
    26   12   82 1    
    27   13   14 ar   
    28   13   15 1    
    29   14   83 1    
    30   15   16 1    
    31   15   84 1    
    32   15   85 1    
    33   16   17 1    
    34   17   18 1    
    35   17   86 1    
    36   17   87 1    
    37   18   19 1    
    38   18   37 1    
    39   18   88 1    
    40   19   20 am   BACKBONE|DICT|INTERRES
    41   19   89 1    
    42   20   21 2    
    43   20   22 1    
    44   22   23 1    
    45   22   24 1    
    46   22   90 1    
    47   23   91 1    
    48   23   92 1    
    49   23   93 1    
    50   24   25 am   BACKBONE|DICT|INTERRES
    51   24   94 1    
    52   25   26 2    
    53   25   27 1    
    54   27   28 1    
    55   27   29 1    
    56   27   95 1    
    57   28   96 1    
    58   28   97 1    
    59   28   98 1    
    60   29   30 am   BACKBONE|DICT|INTERRES
    61   29   99 1    
    62   30   31 2    
    63   30   32 1    
    64   32   33 1    
    65   32   34 1    
    66   32  100 1    
    67   33  101 1    
    68   33  102 1    
    69   33  103 1    
    70   34   35 am   BACKBONE|DICT|INTERRES
    71   34  104 1    
    72   35   36 2    
    73   37   38 2    
    74   37   39 am   BACKBONE|DICT|INTERRES
    75   39   40 1    
    76   39  105 1    
    77   40   41 1    
    78   40   42 1    
    79   40  106 1    
    80   41  107 1    
    81   41  108 1    
    82   41  109 1    
    83   42   43 2    
    84   42   44 am   BACKBONE|DICT|INTERRES
    85   44   45 1    
    86   44  110 1    
    87   45   46 1    
    88   45   47 1    
    89   45  111 1    
    90   46  112 1    
    91   46  113 1    
    92   46  114 1    
    93   47   48 2    
    94   47   49 am   BACKBONE|DICT|INTERRES
    95   49   50 1    
    96   49  115 1    
    97   50   51 1    
    98   50   52 1    
    99   50  116 1    
   100   51  117 1    
   101   51  118 1    
   102   51  119 1    
   103   52   53 2    
   104   52   54 am   BACKBONE|DICT|INTERRES
   105   54   55 1    
   106   54  120 1    
   107   55   56 1    
   108   55   57 1    
   109   55  121 1    
   110   56  122 1    
   111   56  123 1    
   112   56  124 1    
   113   57   58 2    
   114   57   59 am   BACKBONE|DICT|INTERRES
   115   59   60 1    
   116   59  125 1    
   117   60   61 1    
   118   60   62 1    
   119   60  126 1    
   120   61  127 1    
   121   61  128 1    
   122   61  129 1    
   123   62   63 2    
   124   62   64 am   BACKBONE|DICT|INTERRES
   125   64   65 1    
   126   64  130 1    
   127   65   66 1    
   128   65   69 1    
   129   65  131 1    
   130   66   67 am   BACKBONE|DICT|INTERRES
   131   66   68 2    
   132   67  132 1    
   133   67  133 1    
   134   69   70 1    
   135   69  134 1    
   136   69  135 1    
   137   70   71 1    
   138   71  136 1    
   139   71  137 1    
@<TRIPOS>SUBSTRUCTURE
     1 UNK         1 GROUP             0       ****    0 ROOT    
