@<TRIPOS>MOLECULE
3R137
137   139    1
SMALL
USER_CHARGES


@<TRIPOS>ATOM
      1 CA         25.2463   -6.1436   -4.5956 C.3       0 UNK        -0.2020 
      2 C          25.5232   -5.2770   -3.3765 C.2       0 UNK         0.4855 
      3 O          24.5953   -4.6905   -2.8174 O.2       0 UNK        -0.5197 
      4 N          26.7956   -5.1882   -2.9654 N.am      1 UNK        -0.4892 
      5 CA         27.2819   -4.3758   -1.8439 C.3       1 UNK         0.0835 
      6 C6         28.7957   -4.6124   -1.6187 C.3       12 UNK        -0.0855 
      7 S7         29.3915   -3.9682   -0.0163 S.3       12 UNK        -0.2931 
      8 C8         31.1843   -3.7865   -0.3229 C.3       12 UNK         0.0378 
      9 C9         31.4834   -2.8575   -1.4929 C.ar      12 UNK        -0.0802 
     10 C10        32.1641   -3.3318   -2.6182 C.ar      12 UNK        -0.0944 
     11 C11        32.3763   -2.4988   -3.7207 C.ar      12 UNK        -0.0787 
     12 C12        31.8929   -1.1864   -3.7004 C.ar      12 UNK        -0.0862 
     13 C13        31.2150   -0.6994   -2.5787 C.ar      12 UNK        -0.0733 
     14 C14        31.0417   -1.5327   -1.4680 C.ar      12 UNK        -0.0832 
     15 C15        30.6310    0.7076   -2.5818 C.3       12 UNK         0.0240 
     16 S16        28.8583    0.6579   -2.1718 S.3       12 UNK        -0.2522 
     17 C17        28.1422    1.9820   -3.1895 C.3       12 UNK        -0.0967 
     18 CA         28.0763    1.6750   -4.7102 C.3       5 UNK         0.0660 
     19 N          27.7069    0.2923   -5.0415 N.am      5 UNK        -0.4015 
     20 C          27.6935   -0.2120   -6.2864 C.2       4 UNK         0.4946 
     21 O          28.0313    0.4203   -7.2881 O.2       4 UNK        -0.5353 
     22 CA         27.1457   -1.6348   -6.4613 C.3       4 UNK         0.0277 
     23 CB         28.2447   -2.6830   -6.2211 C.3       4 UNK        -0.1981 
     24 N          25.9953   -1.8751   -5.5866 N.am      4 UNK        -0.4209 
     25 C          24.7903   -1.3134   -5.7786 C.2       3 UNK         0.4942 
     26 O          24.5218   -0.5985   -6.7423 O.2       3 UNK        -0.5208 
     27 CA         23.7137   -1.5322   -4.7029 C.3       3 UNK         0.0250 
     28 CB         22.8532   -2.7608   -5.0332 C.3       3 UNK        -0.1990 
     29 N          24.2730   -1.6543   -3.3557 N.am      3 UNK        -0.4232 
     30 C          24.8729   -0.6441   -2.7065 C.2       2 UNK         0.4993 
     31 O          24.9654    0.4972   -3.1627 O.2       2 UNK        -0.5286 
     32 CA         25.5206   -0.9668   -1.3465 C.3       2 UNK         0.0209 
     33 CB         24.5202   -0.7190   -0.2068 C.3       2 UNK        -0.1931 
     34 N          26.0552   -2.3306   -1.2368 N.am      2 UNK        -0.4546 
     35 C          26.9437   -2.8865   -2.0745 C.2       1 UNK         0.5154 
     36 O          27.4236   -2.3011   -3.0466 O.2       1 UNK        -0.5181 
     37 C          27.1462    2.6920   -5.4014 C.2       5 UNK         0.5014 
     38 O          27.6248    3.6988   -5.9232 O.2       5 UNK        -0.5248 
     39 N          25.8381    2.3990   -5.3990 N.am      6 UNK        -0.4434 
     40 CA         24.8141    3.1923   -6.0750 C.3       6 UNK         0.0363 
     41 CB         23.4228    2.7521   -5.5902 C.3       6 UNK        -0.1936 
     42 C          24.9100    3.1125   -7.6089 C.2       6 UNK         0.5081 
     43 O          24.8489    4.1503   -8.2690 O.2       6 UNK        -0.5248 
     44 N          25.0237    1.8916   -8.1504 N.am      7 UNK        -0.4718 
     45 CA         24.9673    1.6328   -9.5904 C.3       7 UNK         0.0273 
     46 CB         24.5848    0.1640   -9.8369 C.3       7 UNK        -0.1935 
     47 C          26.2603    1.9757  -10.3450 C.2       7 UNK         0.5018 
     48 O          26.1776    2.5740  -11.4191 O.2       7 UNK        -0.5186 
     49 N          27.4137    1.5511   -9.8121 N.am      8 UNK        -0.4240 
     50 CA         28.6959    1.5593  -10.5255 C.3       8 UNK         0.0235 
     51 CB         29.1046    0.1028  -10.8054 C.3       8 UNK        -0.2000 
     52 C          29.8196    2.2890   -9.7753 C.2       8 UNK         0.4941 
     53 O          30.8228    2.6277  -10.4060 O.2       8 UNK        -0.5273 
     54 N          29.6682    2.4979   -8.4595 N.am      9 UNK        -0.4262 
     55 CA         30.6354    3.0744   -7.5130 C.3       9 UNK         0.0264 
     56 CB         31.1015    4.4872   -7.9205 C.3       9 UNK        -0.1955 
     57 C          31.8181    2.1358   -7.2233 C.2       9 UNK         0.5031 
     58 O          32.0518    1.8054   -6.0601 O.2       9 UNK        -0.5390 
     59 N          32.5178    1.7065   -8.2779 N.am      10 UNK        -0.4204 
     60 CA         33.5609    0.6865   -8.2442 C.3       10 UNK         0.0237 
     61 CB         34.7651    1.1700   -9.0685 C.3       10 UNK        -0.1985 
     62 C          32.9937   -0.6110   -8.8319 C.2       10 UNK         0.4970 
     63 O          32.2616   -0.5618   -9.8226 O.2       10 UNK        -0.4914 
     64 N          33.3539   -1.7438   -8.2234 N.am      11 UNK        -0.4285 
     65 CA         32.9593   -3.0867   -8.6704 C.3       11 UNK         0.1007 
     66 C          33.7609   -3.5414   -9.9198 C.2       11 UNK         0.5703 
     67 N          33.1607   -4.3538  -10.7792 N.am      11 UNK        -0.7361 
     68 O          34.9292   -3.1981  -10.0968 O.2       11 UNK        -0.4986 
     69 C69        33.0812   -4.1223   -7.5234 C.3       12 UNK        -0.0947 
     70 S70        31.9553   -3.7472   -6.1388 S.3       12 UNK        -0.2240 
     71 C71        33.1135   -3.0222   -4.9409 C.3       12 UNK         0.0194 
     72 H72        25.0323   -5.5184   -5.4619 H         1 UNK         0.0906 
     73 H73        26.0937   -6.7841   -4.8393 H         1 UNK         0.0906 
     74 H74        24.3828   -6.7832   -4.4140 H         1 UNK         0.0906 
     75 H75        27.5106   -5.6758   -3.4862 H         1 UNK         0.3140 
     76 H76        26.7506   -4.7201   -0.9539 H         1 UNK         0.1085 
     77 H77        29.3681   -4.1815   -2.4420 H         1 UNK         0.0836 
     78 H78        29.0127   -5.6818   -1.6316 H         1 UNK         0.0836 
     79 H79        31.6144   -4.7752   -0.4911 H         1 UNK         0.0731 
     80 H80        31.6601   -3.3922    0.5759 H         1 UNK         0.0731 
     81 H81        32.5124   -4.3553   -2.6472 H         1 UNK         0.1312 
     82 H82        32.0314   -0.5502   -4.5648 H         1 UNK         0.1406 
     83 H83        30.5056   -1.1676   -0.6024 H         1 UNK         0.1631 
     84 H84        30.7740    1.1782   -3.5553 H         1 UNK         0.0717 
     85 H85        31.1558    1.3259   -1.8527 H         1 UNK         0.0717 
     86 H86        27.1425    2.1622   -2.7881 H         1 UNK         0.0934 
     87 H87        28.7028    2.9022   -3.0136 H         1 UNK         0.0934 
     88 H88        29.0783    1.8178   -5.1144 H         1 UNK         0.0739 
     89 H89        27.4572   -0.3079   -4.2645 H         1 UNK         0.3093 
     90 H90        26.8090   -1.7370   -7.4955 H         1 UNK         0.0818 
     91 H91        28.7098   -2.5790   -5.2406 H         1 UNK         0.0819 
     92 H92        27.8553   -3.6976   -6.3034 H         1 UNK         0.0819 
     93 H93        29.0402   -2.5799   -6.9605 H         1 UNK         0.0819 
     94 H94        26.1834   -2.3631   -4.7184 H         1 UNK         0.3041 
     95 H95        23.0615   -0.6561   -4.7115 H         1 UNK         0.0784 
     96 H96        22.3691   -2.6449   -6.0039 H         1 UNK         0.0793 
     97 H97        23.4466   -3.6732   -5.0748 H         1 UNK         0.0793 
     98 H98        22.0656   -2.9058   -4.2935 H         1 UNK         0.0793 
     99 H99        24.2700   -2.5787   -2.9364 H         1 UNK         0.3024 
    100 H100       26.3552   -0.2775   -1.2175 H         1 UNK         0.1171 
    101 H101       24.9922   -0.8359    0.7689 H         1 UNK         0.0786 
    102 H102       24.1220    0.2960   -0.2515 H         1 UNK         0.0786 
    103 H103       23.6729   -1.4042   -0.2564 H         1 UNK         0.0786 
    104 H104       25.6830   -2.8960   -0.4873 H         1 UNK         0.2977 
    105 H105       25.5249    1.5812   -4.8856 H         1 UNK         0.3127 
    106 H106       24.9552    4.2366   -5.7876 H         1 UNK         0.0770 
    107 H107       23.2200    1.7083   -5.8322 H         1 UNK         0.0814 
    108 H108       22.6400    3.3528   -6.0553 H         1 UNK         0.0814 
    109 H109       23.3238    2.8689   -4.5108 H         1 UNK         0.0814 
    110 H110       25.0192    1.0759   -7.5424 H         1 UNK         0.2983 
    111 H111       24.1726    2.2523  -10.0129 H         1 UNK         0.0947 
    112 H112       24.5101   -0.0481  -10.9044 H         1 UNK         0.0806 
    113 H113       23.6186   -0.0734   -9.3913 H         1 UNK         0.0806 
    114 H114       25.3225   -0.5219   -9.4182 H         1 UNK         0.0806 
    115 H115       27.4036    1.0862   -8.9064 H         1 UNK         0.3000 
    116 H116       28.5954    2.0683  -11.4865 H         1 UNK         0.0850 
    117 H117       30.0384    0.0596  -11.3678 H         1 UNK         0.0810 
    118 H118       28.3485   -0.4168  -11.3942 H         1 UNK         0.0810 
    119 H119       29.2555   -0.4569   -9.8808 H         1 UNK         0.0810 
    120 H120       28.8551    2.0763   -8.0217 H         1 UNK         0.3040 
    121 H121       30.0975    3.1909   -6.5745 H         1 UNK         0.0766 
    122 H122       30.2515    5.1503   -8.0828 H         1 UNK         0.0812 
    123 H123       31.7034    4.4837   -8.8293 H         1 UNK         0.0812 
    124 H124       31.7130    4.9314   -7.1342 H         1 UNK         0.0812 
    125 H125       32.1716    1.9684   -9.1988 H         1 UNK         0.3205 
    126 H126       33.8881    0.5073   -7.2176 H         1 UNK         0.0754 
    127 H127       35.5646    0.4277   -9.0652 H         1 UNK         0.0769 
    128 H128       35.1772    2.0936   -8.6614 H         1 UNK         0.0769 
    129 H129       34.4946    1.3548  -10.1093 H         1 UNK         0.0769 
    130 H130       34.0030   -1.7072   -7.4529 H         1 UNK         0.2981 
    131 H131       31.9073   -3.0394   -8.9610 H         1 UNK         0.0541 
    132 H132       32.2077   -4.6514  -10.6382 H         1 UNK         0.3459 
    133 H133       33.6697   -4.6719  -11.5891 H         1 UNK         0.3459 
    134 H134       32.8228   -5.1198   -7.8834 H         1 UNK         0.0612 
    135 H135       34.1095   -4.1878   -7.1627 H         1 UNK         0.0612 
    136 H136       33.8469   -3.7743   -4.6458 H         1 UNK         0.0624 
    137 H137       33.6715   -2.2114   -5.4099 H         1 UNK         0.0624 
@<TRIPOS>BOND
     1    1    2 1    
     2    1   72 1    
     3    1   73 1    
     4    1   74 1    
     5    2    3 2    
     6    2    4 am   BACKBONE|DICT|INTERRES
     7    4    5 1    
     8    4   75 1    
     9    5    6 1    
    10    5   35 1    
    11    5   76 1    
    12    6    7 1    
    13    6   77 1    
    14    6   78 1    
    15    7    8 1    
    16    8    9 1    
    17    8   79 1    
    18    8   80 1    
    19    9   10 ar   
    20    9   14 ar   
    21   10   11 ar   
    22   10   81 1    
    23   11   12 ar   
    24   11   71 1    
    25   12   13 ar   
    26   12   82 1    
    27   13   14 ar   
    28   13   15 1    
    29   14   83 1    
    30   15   16 1    
    31   15   84 1    
    32   15   85 1    
    33   16   17 1    
    34   17   18 1    
    35   17   86 1    
    36   17   87 1    
    37   18   19 1    
    38   18   37 1    
    39   18   88 1    
    40   19   20 am   BACKBONE|DICT|INTERRES
    41   19   89 1    
    42   20   21 2    
    43   20   22 1    
    44   22   23 1    
    45   22   24 1    
    46   22   90 1    
    47   23   91 1    
    48   23   92 1    
    49   23   93 1    
    50   24   25 am   BACKBONE|DICT|INTERRES
    51   24   94 1    
    52   25   26 2    
    53   25   27 1    
    54   27   28 1    
    55   27   29 1    
    56   27   95 1    
    57   28   96 1    
    58   28   97 1    
    59   28   98 1    
    60   29   30 am   BACKBONE|DICT|INTERRES
    61   29   99 1    
    62   30   31 2    
    63   30   32 1    
    64   32   33 1    
    65   32   34 1    
    66   32  100 1    
    67   33  101 1    
    68   33  102 1    
    69   33  103 1    
    70   34   35 am   BACKBONE|DICT|INTERRES
    71   34  104 1    
    72   35   36 2    
    73   37   38 2    
    74   37   39 am   BACKBONE|DICT|INTERRES
    75   39   40 1    
    76   39  105 1    
    77   40   41 1    
    78   40   42 1    
    79   40  106 1    
    80   41  107 1    
    81   41  108 1    
    82   41  109 1    
    83   42   43 2    
    84   42   44 am   BACKBONE|DICT|INTERRES
    85   44   45 1    
    86   44  110 1    
    87   45   46 1    
    88   45   47 1    
    89   45  111 1    
    90   46  112 1    
    91   46  113 1    
    92   46  114 1    
    93   47   48 2    
    94   47   49 am   BACKBONE|DICT|INTERRES
    95   49   50 1    
    96   49  115 1    
    97   50   51 1    
    98   50   52 1    
    99   50  116 1    
   100   51  117 1    
   101   51  118 1    
   102   51  119 1    
   103   52   53 2    
   104   52   54 am   BACKBONE|DICT|INTERRES
   105   54   55 1    
   106   54  120 1    
   107   55   56 1    
   108   55   57 1    
   109   55  121 1    
   110   56  122 1    
   111   56  123 1    
   112   56  124 1    
   113   57   58 2    
   114   57   59 am   BACKBONE|DICT|INTERRES
   115   59   60 1    
   116   59  125 1    
   117   60   61 1    
   118   60   62 1    
   119   60  126 1    
   120   61  127 1    
   121   61  128 1    
   122   61  129 1    
   123   62   63 2    
   124   62   64 am   BACKBONE|DICT|INTERRES
   125   64   65 1    
   126   64  130 1    
   127   65   66 1    
   128   65   69 1    
   129   65  131 1    
   130   66   67 am   BACKBONE|DICT|INTERRES
   131   66   68 2    
   132   67  132 1    
   133   67  133 1    
   134   69   70 1    
   135   69  134 1    
   136   69  135 1    
   137   70   71 1    
   138   71  136 1    
   139   71  137 1    
@<TRIPOS>SUBSTRUCTURE
     1 UNK         1 GROUP             0       ****    0 ROOT    
