@<TRIPOS>MOLECULE
3R137
137   139    1
SMALL
USER_CHARGES


@<TRIPOS>ATOM
      1 CA         25.0493   -6.4144    0.5948 C.3       0 UNK        -0.2020 
      2 C          25.8719   -5.1996    0.1939 C.2       0 UNK         0.4855 
      3 O          25.9898   -4.2536    0.9725 O.2       0 UNK        -0.5197 
      4 N          26.4277   -5.2034   -1.0238 N.am      1 UNK        -0.4892 
      5 CA         27.2956   -4.1592   -1.5879 C.3       1 UNK         0.0835 
      6 C6         28.1777   -4.7242   -2.7320 C.3       12 UNK        -0.0855 
      7 S7         29.5041   -5.8368   -2.1607 S.3       12 UNK        -0.2931 
      8 C8         30.7489   -4.6963   -1.4456 C.3       12 UNK         0.0378 
      9 C9         30.9100   -3.3701   -2.1883 C.ar      12 UNK        -0.0802 
     10 C10        31.2595   -3.3418   -3.5424 C.ar      12 UNK        -0.0944 
     11 C11        31.3859   -2.1245   -4.2200 C.ar      12 UNK        -0.0787 
     12 C12        31.1981   -0.9256   -3.5251 C.ar      12 UNK        -0.0862 
     13 C13        30.8480   -0.9360   -2.1689 C.ar      12 UNK        -0.0733 
     14 C14        30.7051   -2.1631   -1.5122 C.ar      12 UNK        -0.0832 
     15 C15        30.6455    0.3566   -1.3763 C.3       12 UNK         0.0240 
     16 S16        29.8038    1.7032   -2.2805 S.3       12 UNK        -0.2522 
     17 C17        28.2535    0.9103   -2.8234 C.3       12 UNK        -0.0967 
     18 CA         28.1386    0.9185   -4.3709 C.3       5 UNK         0.0660 
     19 N          27.5740   -0.3257   -4.8928 N.am      5 UNK        -0.4015 
     20 C          27.5884   -0.6914   -6.1811 C.2       4 UNK         0.4946 
     21 O          28.1400   -0.0453   -7.0703 O.2       4 UNK        -0.5353 
     22 CA         26.8219   -1.9703   -6.5489 C.3       4 UNK         0.0277 
     23 CB         27.7093   -3.2111   -6.3730 C.3       4 UNK        -0.1981 
     24 N          25.5970   -2.1179   -5.7594 N.am      4 UNK        -0.4209 
     25 C          24.4991   -1.3685   -5.9299 C.2       3 UNK         0.4942 
     26 O          24.3933   -0.5007   -6.7970 O.2       3 UNK        -0.5208 
     27 CA         23.3366   -1.6063   -4.9495 C.3       3 UNK         0.0250 
     28 CB         22.5012   -2.8213   -5.3832 C.3       3 UNK        -0.1990 
     29 N          23.7747   -1.7793   -3.5602 N.am      3 UNK        -0.4232 
     30 C          24.3487   -0.8150   -2.8271 C.2       2 UNK         0.4993 
     31 O          24.5761    0.3187   -3.2471 O.2       2 UNK        -0.5286 
     32 CA         24.7946   -1.1855   -1.4011 C.3       2 UNK         0.0209 
     33 CB         23.5948   -1.1762   -0.4404 C.3       2 UNK        -0.1931 
     34 N          25.5172   -2.4591   -1.2675 N.am      2 UNK        -0.4546 
     35 C          26.5337   -2.8844   -2.0305 C.2       1 UNK         0.5154 
     36 O          26.8851   -2.2960   -3.0528 O.2       1 UNK        -0.5181 
     37 C          27.3805    2.1586   -4.8894 C.2       5 UNK         0.5014 
     38 O          28.0197    3.1486   -5.2458 O.2       5 UNK        -0.5248 
     39 N          26.0421    2.0743   -4.9595 N.am      6 UNK        -0.4434 
     40 CA         25.1723    3.0945   -5.5521 C.3       6 UNK         0.0363 
     41 CB         23.7019    2.7733   -5.2411 C.3       6 UNK        -0.1936 
     42 C          25.3846    3.2553   -7.0674 C.2       6 UNK         0.5081 
     43 O          25.3711    4.3848   -7.5578 O.2       6 UNK        -0.5248 
     44 N          25.5991    2.1375   -7.7785 N.am      7 UNK        -0.4718 
     45 CA         25.9856    2.1247   -9.1943 C.3       7 UNK         0.0273 
     46 CB         25.8593    0.6981   -9.7522 C.3       7 UNK        -0.1935 
     47 C          27.4062    2.6723   -9.4255 C.2       7 UNK         0.5018 
     48 O          27.6572    3.2848  -10.4642 O.2       7 UNK        -0.5186 
     49 N          28.3019    2.4363   -8.4563 N.am      8 UNK        -0.4240 
     50 CA         29.6932    2.8860   -8.3230 C.3       8 UNK         0.0235 
     51 CB         29.7980    4.4227   -8.3280 C.3       8 UNK        -0.2000 
     52 C          30.6647    2.2553   -9.3307 C.2       8 UNK         0.4941 
     53 O          31.7401    1.8119   -8.9264 O.2       8 UNK        -0.5273 
     54 N          30.2651    2.1900  -10.6084 N.am      9 UNK        -0.4262 
     55 CA         31.0316    1.6549  -11.7404 C.3       9 UNK         0.0264 
     56 CB         30.1960    1.7912  -13.0230 C.3       9 UNK        -0.1955 
     57 C          31.5076    0.2021  -11.5615 C.2       9 UNK         0.5031 
     58 O          32.5474   -0.1611  -12.1126 O.2       9 UNK        -0.5390 
     59 N          30.7772   -0.5795  -10.7534 N.am      10 UNK        -0.4204 
     60 CA         31.1239   -1.9366  -10.3229 C.3       10 UNK         0.0237 
     61 CB         29.9836   -2.4793   -9.4471 C.3       10 UNK        -0.1985 
     62 C          32.4657   -2.0396   -9.5695 C.2       10 UNK         0.4970 
     63 O          33.0869   -3.1022   -9.6103 O.2       10 UNK        -0.4914 
     64 N          32.8864   -0.9479   -8.9182 N.am      11 UNK        -0.4285 
     65 CA         34.1771   -0.8010   -8.2306 C.3       11 UNK         0.1007 
     66 C          35.0151    0.3733   -8.8174 C.2       11 UNK         0.5703 
     67 N          34.7610    0.8212  -10.0429 N.am      11 UNK        -0.7361 
     68 O          35.9339    0.8722   -8.1712 O.2       11 UNK        -0.4986 
     69 C69        33.9923   -0.7228   -6.6884 C.3       12 UNK        -0.0947 
     70 S70        33.4924   -2.3327   -5.9892 S.3       12 UNK        -0.2240 
     71 C71        31.7095   -2.1140   -5.7061 C.3       12 UNK         0.0194 
     72 H72        25.0257   -7.1692   -0.1910 H         1 UNK         0.0906 
     73 H73        25.4688   -6.8712    1.4907 H         1 UNK         0.0906 
     74 H74        24.0234   -6.1181    0.8119 H         1 UNK         0.0906 
     75 H75        26.2821   -6.0048   -1.6218 H         1 UNK         0.3140 
     76 H76        27.9643   -3.8182   -0.7949 H         1 UNK         0.1085 
     77 H77        27.5609   -5.2624   -3.4538 H         1 UNK         0.0836 
     78 H78        28.6539   -3.9338   -3.3062 H         1 UNK         0.0836 
     79 H79        31.7136   -5.2049   -1.4221 H         1 UNK         0.0731 
     80 H80        30.4801   -4.5175   -0.4034 H         1 UNK         0.0731 
     81 H81        31.4124   -4.2711   -4.0743 H         1 UNK         0.1312 
     82 H82        31.3180    0.0151   -4.0439 H         1 UNK         0.1406 
     83 H83        30.4411   -2.1776   -0.4632 H         1 UNK         0.1631 
     84 H84        31.6217    0.7172   -1.0502 H         1 UNK         0.0717 
     85 H85        30.0736    0.1581   -0.4684 H         1 UNK         0.0717 
     86 H86        28.2401   -0.1109   -2.4418 H         1 UNK         0.0934 
     87 H87        27.4051    1.4030   -2.3436 H         1 UNK         0.0934 
     88 H88        29.1438    0.9726   -4.7950 H         1 UNK         0.0739 
     89 H89        27.1612   -0.9642   -4.2144 H         1 UNK         0.3093 
     90 H90        26.5428   -1.9010   -7.6024 H         1 UNK         0.0818 
     91 H91        28.0598   -3.3100   -5.3484 H         1 UNK         0.0819 
     92 H92        27.1774   -4.1245   -6.6392 H         1 UNK         0.0819 
     93 H93        28.5926   -3.1546   -7.0073 H         1 UNK         0.0819 
     94 H94        25.6353   -2.7496   -4.9716 H         1 UNK         0.3041 
     95 H95        22.6940   -0.7238   -4.9870 H         1 UNK         0.0784 
     96 H96        22.1500   -2.7058   -6.4098 H         1 UNK         0.0793 
     97 H97        23.0758   -3.7473   -5.3376 H         1 UNK         0.0793 
     98 H98        21.6195   -2.9414   -4.7533 H         1 UNK         0.0793 
     99 H99        23.6413   -2.6878   -3.1402 H         1 UNK         0.3024 
    100 H100       25.4858   -0.4030   -1.0809 H         1 UNK         0.1171 
    101 H101       23.9154   -1.2905    0.5954 H         1 UNK         0.0786 
    102 H102       23.0474   -0.2345   -0.5055 H         1 UNK         0.0786 
    103 H103       22.8917   -1.9795   -0.6636 H         1 UNK         0.0786 
    104 H104       25.3397   -2.9962   -0.4245 H         1 UNK         0.2977 
    105 H105       25.5770    1.2647   -4.5543 H         1 UNK         0.3127 
    106 H106       25.4163    4.0498   -5.0827 H         1 UNK         0.0770 
    107 H107       23.4033    1.8084   -5.6517 H         1 UNK         0.0814 
    108 H108       23.0388    3.5286   -5.6648 H         1 UNK         0.0814 
    109 H109       23.5206    2.7493   -4.1664 H         1 UNK         0.0814 
    110 H110       25.5127    1.2393   -7.3150 H         1 UNK         0.2983 
    111 H111       25.2920    2.7683   -9.7400 H         1 UNK         0.0947 
    112 H112       26.0898    0.6748  -10.8181 H         1 UNK         0.0806 
    113 H113       24.8466    0.3129   -9.6302 H         1 UNK         0.0806 
    114 H114       26.5408    0.0067   -9.2566 H         1 UNK         0.0806 
    115 H115       28.0070    1.7987   -7.7218 H         1 UNK         0.3000 
    116 H116       30.0076    2.5428   -7.3357 H         1 UNK         0.0850 
    117 H117       30.8213    4.7425   -8.1275 H         1 UNK         0.0810 
    118 H118       29.1639    4.8609   -7.5568 H         1 UNK         0.0810 
    119 H119       29.5060    4.8517   -9.2868 H         1 UNK         0.0810 
    120 H120       29.3533    2.5917  -10.8172 H         1 UNK         0.3040 
    121 H121       31.9246    2.2745  -11.8440 H         1 UNK         0.0766 
    122 H122       29.9397    2.8322  -13.2209 H         1 UNK         0.0812 
    123 H123       29.2669    1.2231  -12.9613 H         1 UNK         0.0812 
    124 H124       30.7471    1.4243  -13.8902 H         1 UNK         0.0812 
    125 H125       29.9467   -0.1766  -10.3445 H         1 UNK         0.3205 
    126 H126       31.2028   -2.5573  -11.2177 H         1 UNK         0.0754 
    127 H127       30.1995   -3.4921   -9.1037 H         1 UNK         0.0769 
    128 H128       29.0419   -2.5177   -9.9951 H         1 UNK         0.0769 
    129 H129       29.8330   -1.8578   -8.5633 H         1 UNK         0.0769 
    130 H130       32.3368   -0.0948   -8.9660 H         1 UNK         0.2981 
    131 H131       34.7962   -1.6756   -8.4373 H         1 UNK         0.0541 
    132 H132       35.3162    1.5762  -10.4122 H         1 UNK         0.3459 
    133 H133       34.0377    0.4014  -10.6113 H         1 UNK         0.3459 
    134 H134       33.2788    0.0569   -6.4169 H         1 UNK         0.0612 
    135 H135       34.9297   -0.4570   -6.1973 H         1 UNK         0.0612 
    136 H136       31.3490   -1.1968   -6.1745 H         1 UNK         0.0624 
    137 H137       31.1777   -2.9283   -6.2003 H         1 UNK         0.0624 
@<TRIPOS>BOND
     1    1    2 1    
     2    1   72 1    
     3    1   73 1    
     4    1   74 1    
     5    2    3 2    
     6    2    4 am   BACKBONE|DICT|INTERRES
     7    4    5 1    
     8    4   75 1    
     9    5    6 1    
    10    5   35 1    
    11    5   76 1    
    12    6    7 1    
    13    6   77 1    
    14    6   78 1    
    15    7    8 1    
    16    8    9 1    
    17    8   79 1    
    18    8   80 1    
    19    9   10 ar   
    20    9   14 ar   
    21   10   11 ar   
    22   10   81 1    
    23   11   12 ar   
    24   11   71 1    
    25   12   13 ar   
    26   12   82 1    
    27   13   14 ar   
    28   13   15 1    
    29   14   83 1    
    30   15   16 1    
    31   15   84 1    
    32   15   85 1    
    33   16   17 1    
    34   17   18 1    
    35   17   86 1    
    36   17   87 1    
    37   18   19 1    
    38   18   37 1    
    39   18   88 1    
    40   19   20 am   BACKBONE|DICT|INTERRES
    41   19   89 1    
    42   20   21 2    
    43   20   22 1    
    44   22   23 1    
    45   22   24 1    
    46   22   90 1    
    47   23   91 1    
    48   23   92 1    
    49   23   93 1    
    50   24   25 am   BACKBONE|DICT|INTERRES
    51   24   94 1    
    52   25   26 2    
    53   25   27 1    
    54   27   28 1    
    55   27   29 1    
    56   27   95 1    
    57   28   96 1    
    58   28   97 1    
    59   28   98 1    
    60   29   30 am   BACKBONE|DICT|INTERRES
    61   29   99 1    
    62   30   31 2    
    63   30   32 1    
    64   32   33 1    
    65   32   34 1    
    66   32  100 1    
    67   33  101 1    
    68   33  102 1    
    69   33  103 1    
    70   34   35 am   BACKBONE|DICT|INTERRES
    71   34  104 1    
    72   35   36 2    
    73   37   38 2    
    74   37   39 am   BACKBONE|DICT|INTERRES
    75   39   40 1    
    76   39  105 1    
    77   40   41 1    
    78   40   42 1    
    79   40  106 1    
    80   41  107 1    
    81   41  108 1    
    82   41  109 1    
    83   42   43 2    
    84   42   44 am   BACKBONE|DICT|INTERRES
    85   44   45 1    
    86   44  110 1    
    87   45   46 1    
    88   45   47 1    
    89   45  111 1    
    90   46  112 1    
    91   46  113 1    
    92   46  114 1    
    93   47   48 2    
    94   47   49 am   BACKBONE|DICT|INTERRES
    95   49   50 1    
    96   49  115 1    
    97   50   51 1    
    98   50   52 1    
    99   50  116 1    
   100   51  117 1    
   101   51  118 1    
   102   51  119 1    
   103   52   53 2    
   104   52   54 am   BACKBONE|DICT|INTERRES
   105   54   55 1    
   106   54  120 1    
   107   55   56 1    
   108   55   57 1    
   109   55  121 1    
   110   56  122 1    
   111   56  123 1    
   112   56  124 1    
   113   57   58 2    
   114   57   59 am   BACKBONE|DICT|INTERRES
   115   59   60 1    
   116   59  125 1    
   117   60   61 1    
   118   60   62 1    
   119   60  126 1    
   120   61  127 1    
   121   61  128 1    
   122   61  129 1    
   123   62   63 2    
   124   62   64 am   BACKBONE|DICT|INTERRES
   125   64   65 1    
   126   64  130 1    
   127   65   66 1    
   128   65   69 1    
   129   65  131 1    
   130   66   67 am   BACKBONE|DICT|INTERRES
   131   66   68 2    
   132   67  132 1    
   133   67  133 1    
   134   69   70 1    
   135   69  134 1    
   136   69  135 1    
   137   70   71 1    
   138   71  136 1    
   139   71  137 1    
@<TRIPOS>SUBSTRUCTURE
     1 UNK         1 GROUP             0       ****    0 ROOT    
