@<TRIPOS>MOLECULE
3R137
137   139    1
SMALL
USER_CHARGES


@<TRIPOS>ATOM
      1 CA         27.9630   -5.6025   -8.5778 C.3       0 UNK        -0.2020 
      2 C          27.4573   -5.8873   -7.1718 C.2       0 UNK         0.4855 
      3 O          26.7448   -6.8695   -6.9650 O.2       0 UNK        -0.5197 
      4 N          27.8263   -5.0393   -6.2030 N.am      1 UNK        -0.4892 
      5 CA         27.4746   -5.1789   -4.7819 C.3       1 UNK         0.0835 
      6 C6         28.3325   -4.2463   -3.8918 C.3       12 UNK        -0.0855 
      7 S7         30.1028   -4.6717   -3.9797 S.3       12 UNK        -0.2931 
      8 C8         30.6664   -4.2038   -2.3145 C.3       12 UNK         0.0378 
      9 C9         30.7869   -2.6943   -2.1579 C.ar      12 UNK        -0.0802 
     10 C10        31.8833   -2.0267   -2.7110 C.ar      12 UNK        -0.0944 
     11 C11        32.0441   -0.6505   -2.5308 C.ar      12 UNK        -0.0787 
     12 C12        31.0923    0.0614   -1.7958 C.ar      12 UNK        -0.0862 
     13 C13        29.9835   -0.5918   -1.2446 C.ar      12 UNK        -0.0733 
     14 C14        29.8349   -1.9707   -1.4309 C.ar      12 UNK        -0.0832 
     15 C15        28.9734    0.1881   -0.4090 C.3       12 UNK         0.0240 
     16 S16        27.3666    0.4125   -1.2430 S.3       12 UNK        -0.2522 
     17 C17        27.8384    1.3153   -2.7554 C.3       12 UNK        -0.0967 
     18 CA         27.3647    0.5432   -4.0191 C.3       5 UNK         0.0660 
     19 N          25.9222    0.6667   -4.2529 N.am      5 UNK        -0.4015 
     20 C          25.2567    1.7710   -4.6328 C.2       4 UNK         0.4946 
     21 O          25.8087    2.8423   -4.8906 O.2       4 UNK        -0.5353 
     22 CA         23.7198    1.6933   -4.7585 C.3       4 UNK         0.0277 
     23 CB         23.2873    1.8111   -6.2287 C.3       4 UNK        -0.1981 
     24 N          23.1397    0.4744   -4.1938 N.am      4 UNK        -0.4209 
     25 C          22.9950    0.2205   -2.8856 C.2       3 UNK         0.4942 
     26 O          23.2288    1.0433   -2.0001 O.2       3 UNK        -0.5208 
     27 CA         22.5338   -1.1992   -2.4936 C.3       3 UNK         0.0250 
     28 CB         21.0453   -1.1916   -2.1081 C.3       3 UNK        -0.1990 
     29 N          22.7603   -2.2311   -3.5180 N.am      3 UNK        -0.4232 
     30 C          23.9527   -2.5573   -4.0365 C.2       2 UNK         0.4993 
     31 O          25.0039   -1.9848   -3.7376 O.2       2 UNK        -0.5286 
     32 CA         23.9565   -3.6459   -5.1240 C.3       2 UNK         0.0209 
     33 CB         23.4102   -3.0822   -6.4469 C.3       2 UNK        -0.1931 
     34 N          25.3109   -4.1526   -5.3519 N.am      2 UNK        -0.4546 
     35 C          25.9773   -4.9407   -4.4973 C.2       1 UNK         0.5154 
     36 O          25.4612   -5.4586   -3.5048 O.2       1 UNK        -0.5181 
     37 C          28.1592    0.8602   -5.2997 C.2       5 UNK         0.5014 
     38 O          28.0987    0.0685   -6.2427 O.2       5 UNK        -0.5248 
     39 N          28.8816    1.9904   -5.3222 N.am      6 UNK        -0.4434 
     40 CA         29.8106    2.4109   -6.3761 C.3       6 UNK         0.0363 
     41 CB         30.4020    3.7803   -6.0115 C.3       6 UNK        -0.1936 
     42 C          29.2239    2.4417   -7.7956 C.2       6 UNK         0.5081 
     43 O          29.9553    2.1685   -8.7455 O.2       6 UNK        -0.5248 
     44 N          27.9182    2.7155   -7.9200 N.am      7 UNK        -0.4718 
     45 CA         27.1880    2.6854   -9.1917 C.3       7 UNK         0.0273 
     46 CB         25.7755    3.2473   -8.9757 C.3       7 UNK        -0.1935 
     47 C          27.1150    1.2869   -9.8372 C.2       7 UNK         0.5018 
     48 O          26.9817    1.2023  -11.0586 O.2       7 UNK        -0.5186 
     49 N          27.2051    0.2295   -9.0188 N.am      8 UNK        -0.4240 
     50 CA         27.2399   -1.1663   -9.4550 C.3       8 UNK         0.0235 
     51 CB         26.2388   -1.9801   -8.6181 C.3       8 UNK        -0.2000 
     52 C          28.6524   -1.7526   -9.3215 C.2       8 UNK         0.4941 
     53 O          29.0991   -2.4628  -10.2218 O.2       8 UNK        -0.5273 
     54 N          29.3225   -1.4645   -8.1971 N.am      9 UNK        -0.4262 
     55 CA         30.6377   -1.9996   -7.8398 C.3       9 UNK         0.0264 
     56 CB         30.8545   -1.8003   -6.3315 C.3       9 UNK        -0.1955 
     57 C          31.8090   -1.3936   -8.6331 C.2       9 UNK         0.5031 
     58 O          32.8576   -2.0339   -8.7133 O.2       9 UNK        -0.5390 
     59 N          31.6321   -0.1772   -9.1738 N.am      10 UNK        -0.4204 
     60 CA         32.6117    0.6206   -9.9287 C.3       10 UNK         0.0237 
     61 CB         33.0529   -0.1055  -11.2182 C.3       10 UNK        -0.1985 
     62 C          33.8097    1.1248   -9.0947 C.2       10 UNK         0.4970 
     63 O          34.7833    1.6101   -9.6739 O.2       10 UNK        -0.4914 
     64 N          33.7228    1.0224   -7.7629 N.am      11 UNK        -0.4285 
     65 CA         34.7002    1.5485   -6.8018 C.3       11 UNK         0.1007 
     66 C          34.6741    3.0986   -6.6767 C.2       11 UNK         0.5703 
     67 N          35.7063    3.6875   -6.0872 N.am      11 UNK        -0.7361 
     68 O          33.7343    3.7727   -7.0938 O.2       11 UNK        -0.4986 
     69 C69        34.5881    0.8300   -5.4295 C.3       12 UNK        -0.0947 
     70 S70        32.9137    0.8272   -4.7031 S.3       12 UNK        -0.2240 
     71 C71        33.2678    0.0528   -3.0979 C.3       12 UNK         0.0194 
     72 H72        27.1274   -5.3904   -9.2441 H         1 UNK         0.0906 
     73 H73        28.6442   -4.7529   -8.6027 H         1 UNK         0.0906 
     74 H74        28.4953   -6.4700   -8.9669 H         1 UNK         0.0906 
     75 H75        28.4467   -4.2728   -6.4200 H         1 UNK         0.3140 
     76 H76        27.6811   -6.2115   -4.4906 H         1 UNK         0.1085 
     77 H77        28.2039   -3.2005   -4.1789 H         1 UNK         0.0836 
     78 H78        28.0105   -4.3162   -2.8506 H         1 UNK         0.0836 
     79 H79        29.9979   -4.6249   -1.5619 H         1 UNK         0.0731 
     80 H80        31.6416   -4.6597   -2.1371 H         1 UNK         0.0731 
     81 H81        32.6202   -2.5851   -3.2723 H         1 UNK         0.1312 
     82 H82        31.2233    1.1246   -1.6465 H         1 UNK         0.1406 
     83 H83        28.9853   -2.4794   -0.9956 H         1 UNK         0.1631 
     84 H84        29.3703    1.1684   -0.1404 H         1 UNK         0.0717 
     85 H85        28.8074   -0.3373    0.5325 H         1 UNK         0.0717 
     86 H86        27.4118    2.3189   -2.7145 H         1 UNK         0.0934 
     87 H87        28.9195    1.4500   -2.7509 H         1 UNK         0.0934 
     88 H88        27.5470   -0.5193   -3.8465 H         1 UNK         0.0739 
     89 H89        25.4024   -0.1910   -4.0810 H         1 UNK         0.3093 
     90 H90        23.3095    2.5473   -4.2152 H         1 UNK         0.0818 
     91 H91        22.2038    1.7477   -6.3324 H         1 UNK         0.0819 
     92 H92        23.5884    2.7747   -6.6404 H         1 UNK         0.0819 
     93 H93        23.7323    1.0306   -6.8476 H         1 UNK         0.0819 
     94 H94        22.9046   -0.2595   -4.8451 H         1 UNK         0.3041 
     95 H95        23.1134   -1.4862   -1.6135 H         1 UNK         0.0784 
     96 H96        20.8475   -0.4569   -1.3261 H         1 UNK         0.0793 
     97 H97        20.4094   -0.9412   -2.9582 H         1 UNK         0.0793 
     98 H98        20.7285   -2.1614   -1.7238 H         1 UNK         0.0793 
     99 H99        21.9419   -2.7342   -3.8315 H         1 UNK         0.3024 
    100 H100       23.3245   -4.4742   -4.7947 H         1 UNK         0.1171 
    101 H101       23.4770   -3.8156   -7.2509 H         1 UNK         0.0786 
    102 H102       23.9527   -2.1897   -6.7596 H         1 UNK         0.0786 
    103 H103       22.3593   -2.8058   -6.3534 H         1 UNK         0.0786 
    104 H104       25.8235   -3.7609   -6.1265 H         1 UNK         0.2977 
    105 H105       28.8112    2.6080   -4.5272 H         1 UNK         0.3127 
    106 H106       30.6247    1.6857   -6.3928 H         1 UNK         0.0770 
    107 H107       29.6261    4.5364   -5.8864 H         1 UNK         0.0814 
    108 H108       31.0771    4.1343   -6.7919 H         1 UNK         0.0814 
    109 H109       30.9804    3.7297   -5.0887 H         1 UNK         0.0814 
    110 H110       27.3850    2.9106   -7.0826 H         1 UNK         0.2983 
    111 H111       27.7143    3.3382   -9.8917 H         1 UNK         0.0947 
    112 H112       25.2283    3.3012   -9.9180 H         1 UNK         0.0806 
    113 H113       25.8034    4.2541   -8.5588 H         1 UNK         0.0806 
    114 H114       25.1990    2.6165   -8.3008 H         1 UNK         0.0806 
    115 H115       27.3501    0.3970   -8.0279 H         1 UNK         0.3000 
    116 H116       26.9460   -1.2465  -10.5039 H         1 UNK         0.0850 
    117 H117       26.2474   -3.0311   -8.9082 H         1 UNK         0.0810 
    118 H118       25.2229   -1.6140   -8.7656 H         1 UNK         0.0810 
    119 H119       26.4627   -1.9280   -7.5518 H         1 UNK         0.0810 
    120 H120       28.8661   -0.8884   -7.4897 H         1 UNK         0.3040 
    121 H121       30.6325   -3.0727   -8.0420 H         1 UNK         0.0766 
    122 H122       31.8091   -2.2177   -6.0082 H         1 UNK         0.0812 
    123 H123       30.0741   -2.2883   -5.7496 H         1 UNK         0.0812 
    124 H124       30.8489   -0.7457   -6.0604 H         1 UNK         0.0812 
    125 H125       30.7475    0.2967   -9.0187 H         1 UNK         0.3205 
    126 H126       32.0786    1.5206  -10.2375 H         1 UNK         0.0754 
    127 H127       33.6347    0.5564  -11.8609 H         1 UNK         0.0769 
    128 H128       32.1928   -0.4421  -11.7972 H         1 UNK         0.0769 
    129 H129       33.6748   -0.9748  -11.0035 H         1 UNK         0.0769 
    130 H130       32.8838    0.6355   -7.3610 H         1 UNK         0.2981 
    131 H131       35.6866    1.3048   -7.2017 H         1 UNK         0.0541 
    132 H132       35.7062    4.6909   -5.9924 H         1 UNK         0.3459 
    133 H133       36.4857    3.1517   -5.7386 H         1 UNK         0.3459 
    134 H134       35.2869    1.2563   -4.7076 H         1 UNK         0.0612 
    135 H135       34.8913   -0.2111   -5.5514 H         1 UNK         0.0612 
    136 H136       34.0839   -0.6631   -3.2081 H         1 UNK         0.0624 
    137 H137       33.6215    0.8155   -2.4027 H         1 UNK         0.0624 
@<TRIPOS>BOND
     1    1    2 1    
     2    1   72 1    
     3    1   73 1    
     4    1   74 1    
     5    2    3 2    
     6    2    4 am   BACKBONE|DICT|INTERRES
     7    4    5 1    
     8    4   75 1    
     9    5    6 1    
    10    5   35 1    
    11    5   76 1    
    12    6    7 1    
    13    6   77 1    
    14    6   78 1    
    15    7    8 1    
    16    8    9 1    
    17    8   79 1    
    18    8   80 1    
    19    9   10 ar   
    20    9   14 ar   
    21   10   11 ar   
    22   10   81 1    
    23   11   12 ar   
    24   11   71 1    
    25   12   13 ar   
    26   12   82 1    
    27   13   14 ar   
    28   13   15 1    
    29   14   83 1    
    30   15   16 1    
    31   15   84 1    
    32   15   85 1    
    33   16   17 1    
    34   17   18 1    
    35   17   86 1    
    36   17   87 1    
    37   18   19 1    
    38   18   37 1    
    39   18   88 1    
    40   19   20 am   BACKBONE|DICT|INTERRES
    41   19   89 1    
    42   20   21 2    
    43   20   22 1    
    44   22   23 1    
    45   22   24 1    
    46   22   90 1    
    47   23   91 1    
    48   23   92 1    
    49   23   93 1    
    50   24   25 am   BACKBONE|DICT|INTERRES
    51   24   94 1    
    52   25   26 2    
    53   25   27 1    
    54   27   28 1    
    55   27   29 1    
    56   27   95 1    
    57   28   96 1    
    58   28   97 1    
    59   28   98 1    
    60   29   30 am   BACKBONE|DICT|INTERRES
    61   29   99 1    
    62   30   31 2    
    63   30   32 1    
    64   32   33 1    
    65   32   34 1    
    66   32  100 1    
    67   33  101 1    
    68   33  102 1    
    69   33  103 1    
    70   34   35 am   BACKBONE|DICT|INTERRES
    71   34  104 1    
    72   35   36 2    
    73   37   38 2    
    74   37   39 am   BACKBONE|DICT|INTERRES
    75   39   40 1    
    76   39  105 1    
    77   40   41 1    
    78   40   42 1    
    79   40  106 1    
    80   41  107 1    
    81   41  108 1    
    82   41  109 1    
    83   42   43 2    
    84   42   44 am   BACKBONE|DICT|INTERRES
    85   44   45 1    
    86   44  110 1    
    87   45   46 1    
    88   45   47 1    
    89   45  111 1    
    90   46  112 1    
    91   46  113 1    
    92   46  114 1    
    93   47   48 2    
    94   47   49 am   BACKBONE|DICT|INTERRES
    95   49   50 1    
    96   49  115 1    
    97   50   51 1    
    98   50   52 1    
    99   50  116 1    
   100   51  117 1    
   101   51  118 1    
   102   51  119 1    
   103   52   53 2    
   104   52   54 am   BACKBONE|DICT|INTERRES
   105   54   55 1    
   106   54  120 1    
   107   55   56 1    
   108   55   57 1    
   109   55  121 1    
   110   56  122 1    
   111   56  123 1    
   112   56  124 1    
   113   57   58 2    
   114   57   59 am   BACKBONE|DICT|INTERRES
   115   59   60 1    
   116   59  125 1    
   117   60   61 1    
   118   60   62 1    
   119   60  126 1    
   120   61  127 1    
   121   61  128 1    
   122   61  129 1    
   123   62   63 2    
   124   62   64 am   BACKBONE|DICT|INTERRES
   125   64   65 1    
   126   64  130 1    
   127   65   66 1    
   128   65   69 1    
   129   65  131 1    
   130   66   67 am   BACKBONE|DICT|INTERRES
   131   66   68 2    
   132   67  132 1    
   133   67  133 1    
   134   69   70 1    
   135   69  134 1    
   136   69  135 1    
   137   70   71 1    
   138   71  136 1    
   139   71  137 1    
@<TRIPOS>SUBSTRUCTURE
     1 UNK         1 GROUP             0       ****    0 ROOT    
