@<TRIPOS>MOLECULE
3R137
137   139    1
SMALL
USER_CHARGES


@<TRIPOS>ATOM
      1 CA         23.7249   -6.1963   -3.4401 C.3       0 UNK        -0.2020 
      2 C          24.9310   -5.2852   -3.2734 C.2       0 UNK         0.4855 
      3 O          25.2673   -4.5467   -4.1984 O.2       0 UNK        -0.5197 
      4 N          25.5716   -5.3199   -2.0956 N.am      1 UNK        -0.4892 
      5 CA         26.7668   -4.5428   -1.7340 C.3       1 UNK         0.0835 
      6 C6         28.0305   -5.0290   -2.4955 C.3       12 UNK        -0.0855 
      7 S7         29.5580   -4.8143   -1.5251 S.3       12 UNK        -0.2931 
      8 C8         30.7650   -4.3538   -2.8180 C.3       12 UNK         0.0378 
      9 C9         30.8256   -2.8611   -3.1437 C.ar      12 UNK        -0.0802 
     10 C10        31.1289   -2.4554   -4.4490 C.ar      12 UNK        -0.0944 
     11 C11        31.2856   -1.1001   -4.7545 C.ar      12 UNK        -0.0787 
     12 C12        31.1479   -0.1481   -3.7433 C.ar      12 UNK        -0.0862 
     13 C13        30.7970   -0.5275   -2.4456 C.ar      12 UNK        -0.0733 
     14 C14        30.6533   -1.8870   -2.1507 C.ar      12 UNK        -0.0832 
     15 C15        30.5805    0.5200   -1.3549 C.3       12 UNK         0.0240 
     16 S16        29.5595    1.9431   -1.8862 S.3       12 UNK        -0.2522 
     17 C17        28.0581    1.1208   -2.5159 C.3       12 UNK        -0.0967 
     18 CA         28.0002    1.1280   -4.0687 C.3       5 UNK         0.0660 
     19 N          27.4961   -0.1347   -4.6091 N.am      5 UNK        -0.4015 
     20 C          27.5453   -0.4954   -5.8996 C.2       4 UNK         0.4946 
     21 O          28.0824    0.1677   -6.7872 O.2       4 UNK        -0.5353 
     22 CA         26.8438   -1.8098   -6.2732 C.3       4 UNK         0.0277 
     23 CB         27.7857   -2.9952   -6.0199 C.3       4 UNK        -0.1981 
     24 N          25.5872   -2.0009   -5.5417 N.am      4 UNK        -0.4209 
     25 C          24.5269   -1.1829   -5.6359 C.2       3 UNK         0.4942 
     26 O          24.4660   -0.2257   -6.4066 O.2       3 UNK        -0.5208 
     27 CA         23.3660   -1.4276   -4.6602 C.3       3 UNK         0.0250 
     28 CB         22.4768   -2.5900   -5.1299 C.3       3 UNK        -0.1990 
     29 N          23.8374   -1.6648   -3.2936 N.am      3 UNK        -0.4232 
     30 C          24.4491   -0.7415   -2.5362 C.2       2 UNK         0.4993 
     31 O          24.6445    0.4185   -2.8961 O.2       2 UNK        -0.5286 
     32 CA         24.9652   -1.1900   -1.1593 C.3       2 UNK         0.0209 
     33 CB         23.8775   -1.0058   -0.0895 C.3       2 UNK        -0.1931 
     34 N          25.4422   -2.5756   -1.1424 N.am      2 UNK        -0.4546 
     35 C          26.5005   -3.0226   -1.8350 C.2       1 UNK         0.5154 
     36 O          27.1831   -2.2994   -2.5628 O.2       1 UNK        -0.5181 
     37 C          27.2398    2.3471   -4.6242 C.2       5 UNK         0.5014 
     38 O          27.8753    3.2946   -5.0884 O.2       5 UNK        -0.5248 
     39 N          25.9003    2.2890   -4.6020 N.am      6 UNK        -0.4434 
     40 CA         25.0094    3.3187   -5.1436 C.3       6 UNK         0.0363 
     41 CB         23.5563    2.9932   -4.7629 C.3       6 UNK        -0.1936 
     42 C          25.1442    3.4957   -6.6657 C.2       6 UNK         0.5081 
     43 O          25.1412    4.6299   -7.1451 O.2       6 UNK        -0.5248 
     44 N          25.2736    2.3796   -7.3952 N.am      7 UNK        -0.4718 
     45 CA         25.4794    2.3577   -8.8456 C.3       7 UNK         0.0273 
     46 CB         25.1570    0.9496   -9.3723 C.3       7 UNK        -0.1935 
     47 C          26.9002    2.7642   -9.2768 C.2       7 UNK         0.5018 
     48 O          27.0783    3.1455  -10.4343 O.2       7 UNK        -0.5186 
     49 N          27.8758    2.6397   -8.3625 N.am      8 UNK        -0.4240 
     50 CA         29.3251    2.7341   -8.5808 C.3       8 UNK         0.0235 
     51 CB         29.7440    4.1677   -8.9689 C.3       8 UNK        -0.2000 
     52 C          29.8016    1.6627   -9.5807 C.2       8 UNK         0.4941 
     53 O          30.4742    1.9756  -10.5665 O.2       8 UNK        -0.5273 
     54 N          29.3877    0.4137   -9.3292 N.am      9 UNK        -0.4262 
     55 CA         29.5811   -0.7403  -10.2068 C.3       9 UNK         0.0264 
     56 CB         28.5737   -1.8356   -9.8164 C.3       9 UNK        -0.1955 
     57 C          31.0351   -1.2458  -10.1944 C.2       9 UNK         0.5031 
     58 O          31.3267   -2.2657   -9.5667 O.2       9 UNK        -0.5390 
     59 N          31.9099   -0.5163  -10.8997 N.am      10 UNK        -0.4204 
     60 CA         33.3464   -0.7519  -11.0706 C.3       10 UNK         0.0237 
     61 CB         33.6212   -2.0815  -11.8120 C.3       10 UNK        -0.1985 
     62 C          34.0960   -0.6033   -9.7359 C.2       10 UNK         0.4970 
     63 O          34.3489    0.5331   -9.3361 O.2       10 UNK        -0.4914 
     64 N          34.4393   -1.7342   -9.1011 N.am      11 UNK        -0.4285 
     65 CA         35.1162   -1.8822   -7.7967 C.3       11 UNK         0.1007 
     66 C          36.4690   -1.1253   -7.6096 C.2       11 UNK         0.5703 
     67 N          37.1574   -0.7358   -8.6760 N.am      11 UNK        -0.7361 
     68 O          36.9324   -0.9308   -6.4879 O.2       11 UNK        -0.4986 
     69 C69        34.1458   -1.7888   -6.5796 C.3       12 UNK        -0.0947 
     70 S70        33.3429   -0.1672   -6.3370 S.3       12 UNK        -0.2240 
     71 C71        31.5959   -0.6436   -6.1714 C.3       12 UNK         0.0194 
     72 H72        23.8628   -6.8426   -4.3066 H         1 UNK         0.0906 
     73 H73        23.5666   -6.8296   -2.5675 H         1 UNK         0.0906 
     74 H74        22.8246   -5.6033   -3.5981 H         1 UNK         0.0906 
     75 H75        25.2313   -5.9425   -1.3748 H         1 UNK         0.3140 
     76 H76        26.9246   -4.7433   -0.6726 H         1 UNK         0.1085 
     77 H77        28.1189   -4.5571   -3.4716 H         1 UNK         0.0836 
     78 H78        27.9499   -6.0973   -2.7023 H         1 UNK         0.0836 
     79 H79        30.5604   -4.9362   -3.7179 H         1 UNK         0.0731 
     80 H80        31.7556   -4.6591   -2.4788 H         1 UNK         0.0731 
     81 H81        31.2606   -3.1951   -5.2268 H         1 UNK         0.1312 
     82 H82        31.2874    0.8983   -3.9772 H         1 UNK         0.1406 
     83 H83        30.4152   -2.1874   -1.1400 H         1 UNK         0.1631 
     84 H84        31.5525    0.8888   -1.0252 H         1 UNK         0.0717 
     85 H85        30.1082    0.0692   -0.4807 H         1 UNK         0.0717 
     86 H86        28.0552    0.0999   -2.1338 H         1 UNK         0.0934 
     87 H87        27.1787    1.5907   -2.0707 H         1 UNK         0.0934 
     88 H88        29.0127    1.2190   -4.4602 H         1 UNK         0.0739 
     89 H89        27.1108   -0.7954   -3.9417 H         1 UNK         0.3093 
     90 H90        26.6038   -1.7760   -7.3376 H         1 UNK         0.0818 
     91 H91        28.6778   -2.9326   -6.6425 H         1 UNK         0.0819 
     92 H92        28.1289   -3.0041   -4.9875 H         1 UNK         0.0819 
     93 H93        27.3021   -3.9495   -6.2289 H         1 UNK         0.0819 
     94 H94        25.5389   -2.7998   -4.9121 H         1 UNK         0.3041 
     95 H95        22.7534   -0.5234   -4.6450 H         1 UNK         0.0784 
     96 H96        22.0698   -2.3873   -6.1215 H         1 UNK         0.0793 
     97 H97        23.0276   -3.5281   -5.1940 H         1 UNK         0.0793 
     98 H98        21.6313   -2.7405   -4.4586 H         1 UNK         0.0793 
     99 H99        23.7533   -2.6037   -2.9341 H         1 UNK         0.3024 
    100 H100       25.8084   -0.5440   -0.9043 H         1 UNK         0.1171 
    101 H101       24.2578   -1.2330    0.9067 H         1 UNK         0.0786 
    102 H102       23.5212    0.0254   -0.0702 H         1 UNK         0.0786 
    103 H103       23.0136   -1.6455   -0.2744 H         1 UNK         0.0786 
    104 H104       24.9156   -3.2344   -0.5866 H         1 UNK         0.2977 
    105 H105       25.4516    1.4952   -4.1461 H         1 UNK         0.3127 
    106 H106       25.2797    4.2676   -4.6757 H         1 UNK         0.0770 
    107 H107       23.2369    2.0354   -5.1756 H         1 UNK         0.0814 
    108 H108       22.8732    3.7562   -5.1382 H         1 UNK         0.0814 
    109 H109       23.4308    2.9481   -3.6809 H         1 UNK         0.0814 
    110 H110       25.1887    1.4771   -6.9320 H         1 UNK         0.2983 
    111 H111       24.7835    3.0639   -9.3038 H         1 UNK         0.0947 
    112 H112       25.2768    0.8971  -10.4553 H         1 UNK         0.0806 
    113 H113       24.1289    0.6669   -9.1453 H         1 UNK         0.0806 
    114 H114       25.8144    0.1981   -8.9332 H         1 UNK         0.0806 
    115 H115       27.6070    2.2750   -7.4564 H         1 UNK         0.3000 
    116 H116       29.7953    2.4978   -7.6247 H         1 UNK         0.0850 
    117 H117       30.8299    4.2522   -9.0243 H         1 UNK         0.0810 
    118 H118       29.3982    4.8929   -8.2323 H         1 UNK         0.0810 
    119 H119       29.3469    4.4606   -9.9412 H         1 UNK         0.0810 
    120 H120       28.8713    0.2522   -8.4654 H         1 UNK         0.3040 
    121 H121       29.3475   -0.4346  -11.2291 H         1 UNK         0.0766 
    122 H122       27.5465   -1.4806   -9.8994 H         1 UNK         0.0812 
    123 H123       28.7312   -2.1753   -8.7943 H         1 UNK         0.0812 
    124 H124       28.6710   -2.7054  -10.4674 H         1 UNK         0.0812 
    125 H125       31.5668    0.3740  -11.2492 H         1 UNK         0.3205 
    126 H126       33.7100    0.0523  -11.7124 H         1 UNK         0.0754 
    127 H127       34.6916   -2.2356  -11.9552 H         1 UNK         0.0769 
    128 H128       33.1657   -2.0737  -12.8023 H         1 UNK         0.0769 
    129 H129       33.2312   -2.9508  -11.2822 H         1 UNK         0.0769 
    130 H130       34.1600   -2.6016   -9.5350 H         1 UNK         0.2981 
    131 H131       35.4423   -2.9226   -7.8095 H         1 UNK         0.0541 
    132 H132       36.7945   -0.8893   -9.6026 H         1 UNK         0.3459 
    133 H133       38.0375   -0.2618   -8.5487 H         1 UNK         0.3459 
    134 H134       33.3744   -2.5514   -6.6922 H         1 UNK         0.0612 
    135 H135       34.6644   -2.0473   -5.6550 H         1 UNK         0.0612 
    136 H136       30.9735    0.2189   -6.4147 H         1 UNK         0.0624 
    137 H137       31.3399   -1.4132   -6.9011 H         1 UNK         0.0624 
@<TRIPOS>BOND
     1    1    2 1    
     2    1   72 1    
     3    1   73 1    
     4    1   74 1    
     5    2    3 2    
     6    2    4 am   BACKBONE|DICT|INTERRES
     7    4    5 1    
     8    4   75 1    
     9    5    6 1    
    10    5   35 1    
    11    5   76 1    
    12    6    7 1    
    13    6   77 1    
    14    6   78 1    
    15    7    8 1    
    16    8    9 1    
    17    8   79 1    
    18    8   80 1    
    19    9   10 ar   
    20    9   14 ar   
    21   10   11 ar   
    22   10   81 1    
    23   11   12 ar   
    24   11   71 1    
    25   12   13 ar   
    26   12   82 1    
    27   13   14 ar   
    28   13   15 1    
    29   14   83 1    
    30   15   16 1    
    31   15   84 1    
    32   15   85 1    
    33   16   17 1    
    34   17   18 1    
    35   17   86 1    
    36   17   87 1    
    37   18   19 1    
    38   18   37 1    
    39   18   88 1    
    40   19   20 am   BACKBONE|DICT|INTERRES
    41   19   89 1    
    42   20   21 2    
    43   20   22 1    
    44   22   23 1    
    45   22   24 1    
    46   22   90 1    
    47   23   91 1    
    48   23   92 1    
    49   23   93 1    
    50   24   25 am   BACKBONE|DICT|INTERRES
    51   24   94 1    
    52   25   26 2    
    53   25   27 1    
    54   27   28 1    
    55   27   29 1    
    56   27   95 1    
    57   28   96 1    
    58   28   97 1    
    59   28   98 1    
    60   29   30 am   BACKBONE|DICT|INTERRES
    61   29   99 1    
    62   30   31 2    
    63   30   32 1    
    64   32   33 1    
    65   32   34 1    
    66   32  100 1    
    67   33  101 1    
    68   33  102 1    
    69   33  103 1    
    70   34   35 am   BACKBONE|DICT|INTERRES
    71   34  104 1    
    72   35   36 2    
    73   37   38 2    
    74   37   39 am   BACKBONE|DICT|INTERRES
    75   39   40 1    
    76   39  105 1    
    77   40   41 1    
    78   40   42 1    
    79   40  106 1    
    80   41  107 1    
    81   41  108 1    
    82   41  109 1    
    83   42   43 2    
    84   42   44 am   BACKBONE|DICT|INTERRES
    85   44   45 1    
    86   44  110 1    
    87   45   46 1    
    88   45   47 1    
    89   45  111 1    
    90   46  112 1    
    91   46  113 1    
    92   46  114 1    
    93   47   48 2    
    94   47   49 am   BACKBONE|DICT|INTERRES
    95   49   50 1    
    96   49  115 1    
    97   50   51 1    
    98   50   52 1    
    99   50  116 1    
   100   51  117 1    
   101   51  118 1    
   102   51  119 1    
   103   52   53 2    
   104   52   54 am   BACKBONE|DICT|INTERRES
   105   54   55 1    
   106   54  120 1    
   107   55   56 1    
   108   55   57 1    
   109   55  121 1    
   110   56  122 1    
   111   56  123 1    
   112   56  124 1    
   113   57   58 2    
   114   57   59 am   BACKBONE|DICT|INTERRES
   115   59   60 1    
   116   59  125 1    
   117   60   61 1    
   118   60   62 1    
   119   60  126 1    
   120   61  127 1    
   121   61  128 1    
   122   61  129 1    
   123   62   63 2    
   124   62   64 am   BACKBONE|DICT|INTERRES
   125   64   65 1    
   126   64  130 1    
   127   65   66 1    
   128   65   69 1    
   129   65  131 1    
   130   66   67 am   BACKBONE|DICT|INTERRES
   131   66   68 2    
   132   67  132 1    
   133   67  133 1    
   134   69   70 1    
   135   69  134 1    
   136   69  135 1    
   137   70   71 1    
   138   71  136 1    
   139   71  137 1    
@<TRIPOS>SUBSTRUCTURE
     1 UNK         1 GROUP             0       ****    0 ROOT    
