@<TRIPOS>MOLECULE
3R137
137   139    1
SMALL
USER_CHARGES


@<TRIPOS>ATOM
      1 CA         27.4818   -5.8983    2.7610 C.3       0 UNK        -0.2020 
      2 C          27.6952   -4.4030    2.5769 C.2       0 UNK         0.4855 
      3 O          28.2833   -3.7578    3.4456 O.2       0 UNK        -0.5197 
      4 N          27.2172   -3.8487    1.4582 N.am      1 UNK        -0.4892 
      5 CA         27.3215   -2.4264    1.1192 C.3       1 UNK         0.0835 
      6 C6         28.7454   -1.9747    0.6869 C.3       12 UNK        -0.0855 
      7 S7         29.5170   -3.0032   -0.6142 S.3       12 UNK        -0.2931 
      8 C8         29.4664   -1.8748   -2.0394 C.3       12 UNK         0.0378 
      9 C9         29.9999   -2.5521   -3.2921 C.ar      12 UNK        -0.0802 
     10 C10        31.2656   -2.2295   -3.7881 C.ar      12 UNK        -0.0944 
     11 C11        31.7571   -2.8525   -4.9394 C.ar      12 UNK        -0.0787 
     12 C12        30.9731   -3.8106   -5.5922 C.ar      12 UNK        -0.0862 
     13 C13        29.7122   -4.1565   -5.0943 C.ar      12 UNK        -0.0733 
     14 C14        29.2289   -3.5136   -3.9503 C.ar      12 UNK        -0.0832 
     15 C15        28.9057   -5.2736   -5.7474 C.3       12 UNK         0.0240 
     16 S16        27.9925   -4.7344   -7.2282 S.3       12 UNK        -0.2522 
     17 C17        26.6750   -3.6984   -6.5030 C.3       12 UNK        -0.0967 
     18 CA         26.4202   -2.3806   -7.2741 C.3       5 UNK         0.0660 
     19 N          25.2834   -1.6432   -6.7187 N.am      5 UNK        -0.4015 
     20 C          24.6370   -0.6525   -7.3504 C.2       4 UNK         0.4946 
     21 O          24.8935   -0.2899   -8.4970 O.2       4 UNK        -0.5353 
     22 CA         23.5457    0.0881   -6.5583 C.3       4 UNK         0.0277 
     23 CB         22.2084   -0.6644   -6.6449 C.3       4 UNK        -0.1981 
     24 N          23.9044    0.2970   -5.1537 N.am      4 UNK        -0.4209 
     25 C          24.9302    1.0552   -4.7401 C.2       3 UNK         0.4942 
     26 O          25.6419    1.7124   -5.4978 O.2       3 UNK        -0.5208 
     27 CA         25.2487    1.0407   -3.2349 C.3       3 UNK         0.0250 
     28 CB         24.4777    2.1560   -2.5119 C.3       3 UNK        -0.1990 
     29 N          24.9865   -0.2434   -2.5745 N.am      3 UNK        -0.4232 
     30 C          25.5246   -1.4201   -2.9227 C.2       2 UNK         0.4993 
     31 O          26.2932   -1.5663   -3.8760 O.2       2 UNK        -0.5286 
     32 CA         25.1432   -2.6322   -2.0559 C.3       2 UNK         0.0209 
     33 CB         25.0319   -3.9209   -2.8910 C.3       2 UNK        -0.1931 
     34 N          26.1138   -2.8361   -0.9788 N.am      2 UNK        -0.4546 
     35 C          26.2336   -2.0492    0.1012 C.2       1 UNK         0.5154 
     36 O          25.4971   -1.0881    0.3283 O.2       1 UNK        -0.5181 
     37 C          27.6638   -1.4741   -7.3476 C.2       5 UNK         0.5014 
     38 O          28.3213   -1.4393   -8.3883 O.2       5 UNK        -0.5248 
     39 N          27.9258   -0.7126   -6.2741 N.am      6 UNK        -0.4434 
     40 CA         29.0175    0.2623   -6.2082 C.3       6 UNK         0.0363 
     41 CB         29.0640    0.9031   -4.8123 C.3       6 UNK        -0.1936 
     42 C          28.9335    1.3510   -7.2922 C.2       6 UNK         0.5081 
     43 O          29.9629    1.7042   -7.8702 O.2       6 UNK        -0.5248 
     44 N          27.7118    1.8398   -7.5494 N.am      7 UNK        -0.4718 
     45 CA         27.3948    2.8108   -8.5964 C.3       7 UNK         0.0273 
     46 CB         26.0141    3.4257   -8.3174 C.3       7 UNK        -0.1935 
     47 C          27.4400    2.2156  -10.0140 C.2       7 UNK         0.5018 
     48 O          27.8518    2.9186  -10.9371 O.2       7 UNK        -0.5186 
     49 N          27.0115    0.9532  -10.1741 N.am      8 UNK        -0.4240 
     50 CA         27.0730    0.2143  -11.4416 C.3       8 UNK         0.0235 
     51 CB         26.2212   -1.0618  -11.3513 C.3       8 UNK        -0.2000 
     52 C          28.5130   -0.1263  -11.8607 C.2       8 UNK         0.4941 
     53 O          28.8080   -0.1254  -13.0572 O.2       8 UNK        -0.5273 
     54 N          29.3741   -0.3984  -10.8718 N.am      9 UNK        -0.4262 
     55 CA         30.8233   -0.5145  -11.0099 C.3       9 UNK         0.0264 
     56 CB         31.3421   -1.4746   -9.9184 C.3       9 UNK        -0.1955 
     57 C          31.4607    0.8916  -10.9740 C.2       9 UNK         0.5031 
     58 O          31.0841    1.7528  -11.7713 O.2       9 UNK        -0.5390 
     59 N          32.4178    1.1098  -10.0669 N.am      10 UNK        -0.4204 
     60 CA         33.0638    2.3980   -9.8130 C.3       10 UNK         0.0237 
     61 CB         34.1248    2.6953  -10.8952 C.3       10 UNK        -0.1985 
     62 C          33.6391    2.4043   -8.3892 C.2       10 UNK         0.4970 
     63 O          34.7732    2.8435   -8.1888 O.2       10 UNK        -0.4914 
     64 N          32.8687    1.8708   -7.4329 N.am      11 UNK        -0.4285 
     65 CA         33.3140    1.6484   -6.0462 C.3       11 UNK         0.1007 
     66 C          32.9519    2.8111   -5.0792 C.2       11 UNK         0.5703 
     67 N          32.1969    3.8186   -5.5024 N.am      11 UNK        -0.7361 
     68 O          33.3742    2.8053   -3.9255 O.2       11 UNK        -0.4986 
     69 C69        32.8338    0.2829   -5.4872 C.3       12 UNK        -0.0947 
     70 S70        33.1525   -1.1228   -6.6086 S.3       12 UNK        -0.2240 
     71 C71        33.1538   -2.5238   -5.4492 C.3       12 UNK         0.0194 
     72 H72        26.9006   -6.0863    3.6633 H         1 UNK         0.0906 
     73 H73        26.9533   -6.3432    1.9181 H         1 UNK         0.0906 
     74 H74        28.4420   -6.4035    2.8627 H         1 UNK         0.0906 
     75 H75        26.6977   -4.4163    0.8031 H         1 UNK         0.3140 
     76 H76        27.0720   -1.8659    2.0237 H         1 UNK         0.1085 
     77 H77        29.4063   -2.0120    1.5541 H         1 UNK         0.0836 
     78 H78        28.7395   -0.9264    0.3817 H         1 UNK         0.0836 
     79 H79        28.4431   -1.5428   -2.2124 H         1 UNK         0.0731 
     80 H80        30.0468   -0.9797   -1.8101 H         1 UNK         0.0731 
     81 H81        31.8728   -1.4981   -3.2734 H         1 UNK         0.1312 
     82 H82        31.3542   -4.3065   -6.4745 H         1 UNK         0.1406 
     83 H83        28.2609   -3.7755   -3.5493 H         1 UNK         0.1631 
     84 H84        28.2056   -5.7102   -5.0332 H         1 UNK         0.0717 
     85 H85        29.5812   -6.0810   -6.0340 H         1 UNK         0.0717 
     86 H86        25.7620   -4.2955   -6.4839 H         1 UNK         0.0934 
     87 H87        26.9088   -3.4850   -5.4624 H         1 UNK         0.0934 
     88 H88        26.1594   -2.6507   -8.2997 H         1 UNK         0.0739 
     89 H89        25.0755   -1.8144   -5.7446 H         1 UNK         0.3093 
     90 H90        23.4157    1.0702   -7.0186 H         1 UNK         0.0818 
     91 H91        21.4067   -0.1057   -6.1616 H         1 UNK         0.0819 
     92 H92        21.9139   -0.8147   -7.6847 H         1 UNK         0.0819 
     93 H93        22.2633   -1.6479   -6.1766 H         1 UNK         0.0819 
     94 H94        23.3619   -0.1961   -4.4596 H         1 UNK         0.3041 
     95 H95        26.3155    1.2426   -3.1263 H         1 UNK         0.0784 
     96 H96        24.6761    3.1268   -2.9688 H         1 UNK         0.0793 
     97 H97        23.3999    1.9925   -2.5480 H         1 UNK         0.0793 
     98 H98        24.7722    2.2275   -1.4645 H         1 UNK         0.0793 
     99 H99        24.4209   -0.2095   -1.7368 H         1 UNK         0.3024 
    100 H100       24.1629   -2.4417   -1.6124 H         1 UNK         0.1171 
    101 H101       24.3420   -3.7885   -3.7255 H         1 UNK         0.0786 
    102 H102       24.6538   -4.7480   -2.2899 H         1 UNK         0.0786 
    103 H103       25.9912   -4.2259   -3.3071 H         1 UNK         0.0786 
    104 H104       26.8054   -3.5575   -1.1237 H         1 UNK         0.2977 
    105 H105       27.3523   -0.8290   -5.4440 H         1 UNK         0.3127 
    106 H106       29.9394   -0.2967   -6.3746 H         1 UNK         0.0770 
    107 H107       28.1507    1.4535   -4.5921 H         1 UNK         0.0814 
    108 H108       29.8879    1.6130   -4.7323 H         1 UNK         0.0814 
    109 H109       29.2012    0.1542   -4.0351 H         1 UNK         0.0814 
    110 H110       26.9407    1.5462   -6.9554 H         1 UNK         0.2983 
    111 H111       28.1396    3.6086   -8.5516 H         1 UNK         0.0947 
    112 H112       25.7569    4.1705   -9.0717 H         1 UNK         0.0806 
    113 H113       25.9911    3.9236   -7.3479 H         1 UNK         0.0806 
    114 H114       25.2284    2.6688   -8.3219 H         1 UNK         0.0806 
    115 H115       26.6105    0.4646   -9.3803 H         1 UNK         0.3000 
    116 H116       26.6468    0.8505  -12.2203 H         1 UNK         0.0850 
    117 H117       26.2517   -1.6191  -12.2885 H         1 UNK         0.0810 
    118 H118       25.1761   -0.8273  -11.1490 H         1 UNK         0.0810 
    119 H119       26.5752   -1.7275  -10.5639 H         1 UNK         0.0810 
    120 H120       29.0084   -0.4559   -9.9246 H         1 UNK         0.3040 
    121 H121       31.0589   -0.9507  -11.9826 H         1 UNK         0.0766 
    122 H122       30.8668   -2.4522  -10.0042 H         1 UNK         0.0812 
    123 H123       31.1289   -1.1028   -8.9148 H         1 UNK         0.0812 
    124 H124       32.4172   -1.6388  -10.0015 H         1 UNK         0.0812 
    125 H125       32.6753    0.3578   -9.4415 H         1 UNK         0.3205 
    126 H126       32.3048    3.1828   -9.8435 H         1 UNK         0.0754 
    127 H127       34.5993    3.6626  -10.7253 H         1 UNK         0.0769 
    128 H128       33.6836    2.7283  -11.8913 H         1 UNK         0.0769 
    129 H129       34.9113    1.9398  -10.9028 H         1 UNK         0.0769 
    130 H130       31.9050    1.6250   -7.6446 H         1 UNK         0.2981 
    131 H131       34.4047    1.6058   -6.0404 H         1 UNK         0.0541 
    132 H132       31.8465    3.8319   -6.4467 H         1 UNK         0.3459 
    133 H133       31.9759    4.5703   -4.8689 H         1 UNK         0.3459 
    134 H134       31.7703    0.3091   -5.2663 H         1 UNK         0.0612 
    135 H135       33.3325    0.0830   -4.5373 H         1 UNK         0.0612 
    136 H136       33.5746   -3.3926   -5.9574 H         1 UNK         0.0624 
    137 H137       33.8233   -2.3097   -4.6149 H         1 UNK         0.0624 
@<TRIPOS>BOND
     1    1    2 1    
     2    1   72 1    
     3    1   73 1    
     4    1   74 1    
     5    2    3 2    
     6    2    4 am   BACKBONE|DICT|INTERRES
     7    4    5 1    
     8    4   75 1    
     9    5    6 1    
    10    5   35 1    
    11    5   76 1    
    12    6    7 1    
    13    6   77 1    
    14    6   78 1    
    15    7    8 1    
    16    8    9 1    
    17    8   79 1    
    18    8   80 1    
    19    9   10 ar   
    20    9   14 ar   
    21   10   11 ar   
    22   10   81 1    
    23   11   12 ar   
    24   11   71 1    
    25   12   13 ar   
    26   12   82 1    
    27   13   14 ar   
    28   13   15 1    
    29   14   83 1    
    30   15   16 1    
    31   15   84 1    
    32   15   85 1    
    33   16   17 1    
    34   17   18 1    
    35   17   86 1    
    36   17   87 1    
    37   18   19 1    
    38   18   37 1    
    39   18   88 1    
    40   19   20 am   BACKBONE|DICT|INTERRES
    41   19   89 1    
    42   20   21 2    
    43   20   22 1    
    44   22   23 1    
    45   22   24 1    
    46   22   90 1    
    47   23   91 1    
    48   23   92 1    
    49   23   93 1    
    50   24   25 am   BACKBONE|DICT|INTERRES
    51   24   94 1    
    52   25   26 2    
    53   25   27 1    
    54   27   28 1    
    55   27   29 1    
    56   27   95 1    
    57   28   96 1    
    58   28   97 1    
    59   28   98 1    
    60   29   30 am   BACKBONE|DICT|INTERRES
    61   29   99 1    
    62   30   31 2    
    63   30   32 1    
    64   32   33 1    
    65   32   34 1    
    66   32  100 1    
    67   33  101 1    
    68   33  102 1    
    69   33  103 1    
    70   34   35 am   BACKBONE|DICT|INTERRES
    71   34  104 1    
    72   35   36 2    
    73   37   38 2    
    74   37   39 am   BACKBONE|DICT|INTERRES
    75   39   40 1    
    76   39  105 1    
    77   40   41 1    
    78   40   42 1    
    79   40  106 1    
    80   41  107 1    
    81   41  108 1    
    82   41  109 1    
    83   42   43 2    
    84   42   44 am   BACKBONE|DICT|INTERRES
    85   44   45 1    
    86   44  110 1    
    87   45   46 1    
    88   45   47 1    
    89   45  111 1    
    90   46  112 1    
    91   46  113 1    
    92   46  114 1    
    93   47   48 2    
    94   47   49 am   BACKBONE|DICT|INTERRES
    95   49   50 1    
    96   49  115 1    
    97   50   51 1    
    98   50   52 1    
    99   50  116 1    
   100   51  117 1    
   101   51  118 1    
   102   51  119 1    
   103   52   53 2    
   104   52   54 am   BACKBONE|DICT|INTERRES
   105   54   55 1    
   106   54  120 1    
   107   55   56 1    
   108   55   57 1    
   109   55  121 1    
   110   56  122 1    
   111   56  123 1    
   112   56  124 1    
   113   57   58 2    
   114   57   59 am   BACKBONE|DICT|INTERRES
   115   59   60 1    
   116   59  125 1    
   117   60   61 1    
   118   60   62 1    
   119   60  126 1    
   120   61  127 1    
   121   61  128 1    
   122   61  129 1    
   123   62   63 2    
   124   62   64 am   BACKBONE|DICT|INTERRES
   125   64   65 1    
   126   64  130 1    
   127   65   66 1    
   128   65   69 1    
   129   65  131 1    
   130   66   67 am   BACKBONE|DICT|INTERRES
   131   66   68 2    
   132   67  132 1    
   133   67  133 1    
   134   69   70 1    
   135   69  134 1    
   136   69  135 1    
   137   70   71 1    
   138   71  136 1    
   139   71  137 1    
@<TRIPOS>SUBSTRUCTURE
     1 UNK         1 GROUP             0       ****    0 ROOT    
