@<TRIPOS>MOLECULE
3R137
137   139    1
SMALL
USER_CHARGES


@<TRIPOS>ATOM
      1 CA         25.0246   -5.9438   -7.3183 C.3       0 UNK        -0.2020 
      2 C          25.3418   -5.7005   -5.8508 C.2       0 UNK         0.4855 
      3 O          24.7870   -6.3745   -4.9818 O.2       0 UNK        -0.5197 
      4 N          26.2234   -4.7348   -5.5634 N.am      1 UNK        -0.4892 
      5 CA         26.6757   -4.3474   -4.2208 C.3       1 UNK         0.0835 
      6 C6         28.0287   -3.6011   -4.2848 C.3       12 UNK        -0.0855 
      7 S7         29.4031   -4.6773   -4.8127 S.3       12 UNK        -0.2931 
      8 C8         30.4434   -4.7232   -3.3150 C.3       12 UNK         0.0378 
      9 C9         31.0117   -3.3534   -2.9626 C.ar      12 UNK        -0.0802 
     10 C10        32.0958   -2.8340   -3.6766 C.ar      12 UNK        -0.0944 
     11 C11        32.6266   -1.5808   -3.3530 C.ar      12 UNK        -0.0787 
     12 C12        32.0519   -0.8380   -2.3169 C.ar      12 UNK        -0.0862 
     13 C13        30.9603   -1.3425   -1.6009 C.ar      12 UNK        -0.0733 
     14 C14        30.4601   -2.6086   -1.9151 C.ar      12 UNK        -0.0832 
     15 C15        30.3193   -0.5232   -0.4863 C.3       12 UNK         0.0240 
     16 S16        28.6163    0.0013   -0.8902 S.3       12 UNK        -0.2522 
     17 C17        28.8698    0.9251   -2.4413 C.3       12 UNK        -0.0967 
     18 CA         28.1716    0.2177   -3.6416 C.3       5 UNK         0.0660 
     19 N          26.7137    0.4155   -3.6354 N.am      5 UNK        -0.4015 
     20 C          26.0731    1.5654   -3.9051 C.2       4 UNK         0.4946 
     21 O          26.6352    2.5721   -4.3459 O.2       4 UNK        -0.5353 
     22 CA         24.5694    1.6303   -3.5650 C.3       4 UNK         0.0277 
     23 CB         23.8983    2.9401   -4.0331 C.3       4 UNK        -0.1981 
     24 N          23.7756    0.4770   -3.9979 N.am      4 UNK        -0.4209 
     25 C          23.6047    0.0002   -5.2385 C.2       3 UNK         0.4942 
     26 O          24.2188    0.4033   -6.2256 O.2       3 UNK        -0.5208 
     27 CA         22.5435   -1.1132   -5.3849 C.3       3 UNK         0.0250 
     28 CB         22.3443   -1.5821   -6.8382 C.3       3 UNK        -0.1990 
     29 N          22.8546   -2.2746   -4.5518 N.am      3 UNK        -0.4232 
     30 C          22.6922   -2.3510   -3.2241 C.2       2 UNK         0.4993 
     31 O          22.1537   -1.4704   -2.5518 O.2       2 UNK        -0.5286 
     32 CA         23.2875   -3.5823   -2.5212 C.3       2 UNK         0.0209 
     33 CB         22.2163   -4.6689   -2.3370 C.3       2 UNK        -0.1931 
     34 N          24.4456   -4.1563   -3.2166 N.am      2 UNK        -0.4546 
     35 C          25.6009   -3.5261   -3.4722 C.2       1 UNK         0.5154 
     36 O          25.8144   -2.3499   -3.1648 O.2       1 UNK        -0.5181 
     37 C          28.7857    0.5684   -5.0125 C.2       5 UNK         0.5014 
     38 O          28.5579   -0.1606   -5.9805 O.2       5 UNK        -0.5248 
     39 N          29.5299    1.6824   -5.0797 N.am      6 UNK        -0.4434 
     40 CA         30.2185    2.1966   -6.2633 C.3       6 UNK         0.0363 
     41 CB         30.9989    3.4628   -5.8829 C.3       6 UNK        -0.1936 
     42 C          29.3020    2.4747   -7.4634 C.2       6 UNK         0.5081 
     43 O          29.7750    2.3915   -8.5950 O.2       6 UNK        -0.5248 
     44 N          28.0113    2.7438   -7.2193 N.am      7 UNK        -0.4718 
     45 CA         26.9977    2.8929   -8.2682 C.3       7 UNK         0.0273 
     46 CB         25.6912    3.4010   -7.6433 C.3       7 UNK        -0.1935 
     47 C          26.7531    1.6011   -9.0746 C.2       7 UNK         0.5018 
     48 O          26.3435    1.6919  -10.2328 O.2       7 UNK        -0.5186 
     49 N          27.0292    0.4389   -8.4672 N.am      8 UNK        -0.4240 
     50 CA         26.9916   -0.8719   -9.1120 C.3       8 UNK         0.0235 
     51 CB         26.2602   -1.8637   -8.1933 C.3       8 UNK        -0.2000 
     52 C          28.4079   -1.3757   -9.4229 C.2       8 UNK         0.4941 
     53 O          28.6438   -1.8729  -10.5243 O.2       8 UNK        -0.5273 
     54 N          29.3166   -1.2645   -8.4444 N.am      9 UNK        -0.4262 
     55 CA         30.6615   -1.8409   -8.4905 C.3       9 UNK         0.0264 
     56 CB         31.1886   -1.9697   -7.0539 C.3       9 UNK        -0.1955 
     57 C          31.6697   -1.0687   -9.3575 C.2       9 UNK         0.5031 
     58 O          32.6656   -1.6659   -9.7676 O.2       9 UNK        -0.5390 
     59 N          31.4335    0.2332   -9.5870 N.am      10 UNK        -0.4204 
     60 CA         32.3086    1.1848  -10.2919 C.3       10 UNK         0.0237 
     61 CB         32.4938    0.7836  -11.7715 C.3       10 UNK        -0.1985 
     62 C          33.6518    1.4649   -9.5808 C.2       10 UNK         0.4970 
     63 O          34.5604    2.0168  -10.2045 O.2       10 UNK        -0.4914 
     64 N          33.7590    1.0957   -8.2980 N.am      11 UNK        -0.4285 
     65 CA         34.9169    1.3456   -7.4303 C.3       11 UNK         0.1007 
     66 C          35.0658    2.8326   -6.9991 C.2       11 UNK         0.5703 
     67 N          36.2198    3.2070   -6.4623 N.am      11 UNK        -0.7361 
     68 O          34.1558    3.6478   -7.1351 O.2       11 UNK        -0.4986 
     69 C69        34.9489    0.3590   -6.2307 C.3       12 UNK        -0.0947 
     70 S70        33.4199    0.3086   -5.2337 S.3       12 UNK        -0.2240 
     71 C71        33.8427   -1.0489   -4.0988 C.3       12 UNK         0.0194 
     72 H72        23.9773   -5.7189   -7.5179 H         1 UNK         0.0906 
     73 H73        25.6366   -5.3280   -7.9767 H         1 UNK         0.0906 
     74 H74        25.2029   -6.9885   -7.5715 H         1 UNK         0.0906 
     75 H75        26.6562   -4.2261   -6.3201 H         1 UNK         0.3140 
     76 H76        26.8279   -5.2560   -3.6332 H         1 UNK         0.1085 
     77 H77        27.9712   -2.7525   -4.9691 H         1 UNK         0.0836 
     78 H78        28.2648   -3.1844   -3.3077 H         1 UNK         0.0836 
     79 H79        29.8615   -5.1268   -2.4848 H         1 UNK         0.0731 
     80 H80        31.2640   -5.4233   -3.4784 H         1 UNK         0.0731 
     81 H81        32.5287   -3.4122   -4.4815 H         1 UNK         0.1312 
     82 H82        32.4577    0.1341   -2.0718 H         1 UNK         0.1406 
     83 H83        29.6240   -3.0018   -1.3526 H         1 UNK         0.1631 
     84 H84        30.9179    0.3610   -0.2616 H         1 UNK         0.0717 
     85 H85        30.2980   -1.1172    0.4285 H         1 UNK         0.0717 
     86 H86        28.4969    1.9419   -2.3069 H         1 UNK         0.0934 
     87 H87        29.9446    1.0222   -2.5981 H         1 UNK         0.0934 
     88 H88        28.3352   -0.8532   -3.5321 H         1 UNK         0.0739 
     89 H89        26.1757   -0.3979   -3.3495 H         1 UNK         0.3093 
     90 H90        24.5257    1.6241   -2.4749 H         1 UNK         0.0818 
     91 H91        22.8718    3.0078   -3.6734 H         1 UNK         0.0819 
     92 H92        24.4285    3.8145   -3.6535 H         1 UNK         0.0819 
     93 H93        23.8750    3.0186   -5.1193 H         1 UNK         0.0819 
     94 H94        23.2372    0.0173   -3.2684 H         1 UNK         0.3041 
     95 H95        21.5958   -0.6864   -5.0492 H         1 UNK         0.0784 
     96 H96        22.1649   -0.7382   -7.5059 H         1 UNK         0.0793 
     97 H97        23.2128   -2.1216   -7.2127 H         1 UNK         0.0793 
     98 H98        21.4831   -2.2453   -6.9213 H         1 UNK         0.0793 
     99 H99        23.3383   -3.0354   -5.0051 H         1 UNK         0.3024 
    100 H100       23.6242   -3.2558   -1.5347 H         1 UNK         0.1171 
    101 H101       21.8659   -5.0568   -3.2945 H         1 UNK         0.0786 
    102 H102       21.3480   -4.2763   -1.8056 H         1 UNK         0.0786 
    103 H103       22.5981   -5.5077   -1.7547 H         1 UNK         0.0786 
    104 H104       24.3516   -5.1046   -3.5717 H         1 UNK         0.2977 
    105 H105       29.6051    2.2484   -4.2477 H         1 UNK         0.3127 
    106 H106       30.9344    1.4369   -6.5795 H         1 UNK         0.0770 
    107 H107       30.3448    4.2361   -5.4785 H         1 UNK         0.0814 
    108 H108       31.5015    3.8864   -6.7535 H         1 UNK         0.0814 
    109 H109       31.7699    3.2471   -5.1428 H         1 UNK         0.0814 
    110 H110       27.6867    2.7676   -6.2576 H         1 UNK         0.2983 
    111 H111       27.3558    3.6484   -8.9710 H         1 UNK         0.0947 
    112 H112       24.9256    3.5557   -8.4047 H         1 UNK         0.0806 
    113 H113       25.8365    4.3502   -7.1274 H         1 UNK         0.0806 
    114 H114       25.2962    2.6852   -6.9242 H         1 UNK         0.0806 
    115 H115       27.3711    0.4625   -7.5123 H         1 UNK         0.3000 
    116 H116       26.4414   -0.8167  -10.0539 H         1 UNK         0.0850 
    117 H117       26.7463   -1.9564   -7.2213 H         1 UNK         0.0810 
    118 H118       25.2368   -1.5366   -8.0204 H         1 UNK         0.0810 
    119 H119       26.2161   -2.8564   -8.6425 H         1 UNK         0.0810 
    120 H120       29.0291   -0.8624   -7.5526 H         1 UNK         0.3040 
    121 H121       30.5853   -2.8467   -8.9096 H         1 UNK         0.0766 
    122 H122       30.5629   -2.6380   -6.4657 H         1 UNK         0.0812 
    123 H123       31.2043   -1.0083   -6.5433 H         1 UNK         0.0812 
    124 H124       32.2023   -2.3723   -7.0328 H         1 UNK         0.0812 
    125 H125       30.5927    0.6525   -9.2007 H         1 UNK         0.3205 
    126 H126       31.7768    2.1368  -10.2855 H         1 UNK         0.0754 
    127 H127       31.5342    0.6009  -12.2553 H         1 UNK         0.0769 
    128 H128       33.1001   -0.1164  -11.8767 H         1 UNK         0.0769 
    129 H129       32.9915    1.5752  -12.3328 H         1 UNK         0.0769 
    130 H130       32.9650    0.6690   -7.8484 H         1 UNK         0.2981 
    131 H131       35.8018    1.1305   -8.0328 H         1 UNK         0.0541 
    132 H132       36.9781    2.5538   -6.3429 H         1 UNK         0.3459 
    133 H133       36.3345    4.1657   -6.1732 H         1 UNK         0.3459 
    134 H134       35.7915    0.5712   -5.5705 H         1 UNK         0.0612 
    135 H135       35.1246   -0.6473   -6.6142 H         1 UNK         0.0612 
    136 H136       34.3159   -1.8545   -4.6623 H         1 UNK         0.0624 
    137 H137       34.5867   -0.6967   -3.3828 H         1 UNK         0.0624 
@<TRIPOS>BOND
     1    1    2 1    
     2    1   72 1    
     3    1   73 1    
     4    1   74 1    
     5    2    3 2    
     6    2    4 am   BACKBONE|DICT|INTERRES
     7    4    5 1    
     8    4   75 1    
     9    5    6 1    
    10    5   35 1    
    11    5   76 1    
    12    6    7 1    
    13    6   77 1    
    14    6   78 1    
    15    7    8 1    
    16    8    9 1    
    17    8   79 1    
    18    8   80 1    
    19    9   10 ar   
    20    9   14 ar   
    21   10   11 ar   
    22   10   81 1    
    23   11   12 ar   
    24   11   71 1    
    25   12   13 ar   
    26   12   82 1    
    27   13   14 ar   
    28   13   15 1    
    29   14   83 1    
    30   15   16 1    
    31   15   84 1    
    32   15   85 1    
    33   16   17 1    
    34   17   18 1    
    35   17   86 1    
    36   17   87 1    
    37   18   19 1    
    38   18   37 1    
    39   18   88 1    
    40   19   20 am   BACKBONE|DICT|INTERRES
    41   19   89 1    
    42   20   21 2    
    43   20   22 1    
    44   22   23 1    
    45   22   24 1    
    46   22   90 1    
    47   23   91 1    
    48   23   92 1    
    49   23   93 1    
    50   24   25 am   BACKBONE|DICT|INTERRES
    51   24   94 1    
    52   25   26 2    
    53   25   27 1    
    54   27   28 1    
    55   27   29 1    
    56   27   95 1    
    57   28   96 1    
    58   28   97 1    
    59   28   98 1    
    60   29   30 am   BACKBONE|DICT|INTERRES
    61   29   99 1    
    62   30   31 2    
    63   30   32 1    
    64   32   33 1    
    65   32   34 1    
    66   32  100 1    
    67   33  101 1    
    68   33  102 1    
    69   33  103 1    
    70   34   35 am   BACKBONE|DICT|INTERRES
    71   34  104 1    
    72   35   36 2    
    73   37   38 2    
    74   37   39 am   BACKBONE|DICT|INTERRES
    75   39   40 1    
    76   39  105 1    
    77   40   41 1    
    78   40   42 1    
    79   40  106 1    
    80   41  107 1    
    81   41  108 1    
    82   41  109 1    
    83   42   43 2    
    84   42   44 am   BACKBONE|DICT|INTERRES
    85   44   45 1    
    86   44  110 1    
    87   45   46 1    
    88   45   47 1    
    89   45  111 1    
    90   46  112 1    
    91   46  113 1    
    92   46  114 1    
    93   47   48 2    
    94   47   49 am   BACKBONE|DICT|INTERRES
    95   49   50 1    
    96   49  115 1    
    97   50   51 1    
    98   50   52 1    
    99   50  116 1    
   100   51  117 1    
   101   51  118 1    
   102   51  119 1    
   103   52   53 2    
   104   52   54 am   BACKBONE|DICT|INTERRES
   105   54   55 1    
   106   54  120 1    
   107   55   56 1    
   108   55   57 1    
   109   55  121 1    
   110   56  122 1    
   111   56  123 1    
   112   56  124 1    
   113   57   58 2    
   114   57   59 am   BACKBONE|DICT|INTERRES
   115   59   60 1    
   116   59  125 1    
   117   60   61 1    
   118   60   62 1    
   119   60  126 1    
   120   61  127 1    
   121   61  128 1    
   122   61  129 1    
   123   62   63 2    
   124   62   64 am   BACKBONE|DICT|INTERRES
   125   64   65 1    
   126   64  130 1    
   127   65   66 1    
   128   65   69 1    
   129   65  131 1    
   130   66   67 am   BACKBONE|DICT|INTERRES
   131   66   68 2    
   132   67  132 1    
   133   67  133 1    
   134   69   70 1    
   135   69  134 1    
   136   69  135 1    
   137   70   71 1    
   138   71  136 1    
   139   71  137 1    
@<TRIPOS>SUBSTRUCTURE
     1 UNK         1 GROUP             0       ****    0 ROOT    
