@<TRIPOS>MOLECULE
3R137
137   139    1
SMALL
USER_CHARGES


@<TRIPOS>ATOM
      1 CA         27.3395   -0.6788    3.3175 C.3       0 UNK        -0.2020 
      2 C          27.5915   -1.1179    1.8828 C.2       0 UNK         0.4855 
      3 O          27.0400   -0.5249    0.9553 O.2       0 UNK        -0.5197 
      4 N          28.4270   -2.1461    1.6929 N.am      1 UNK        -0.4892 
      5 CA         28.7561   -2.7295    0.3883 C.3       1 UNK         0.0835 
      6 C6         29.9959   -3.6553    0.4640 C.3       12 UNK        -0.0855 
      7 S7         31.4801   -2.7702    1.0519 S.3       12 UNK        -0.2931 
      8 C8         32.5511   -2.7937   -0.4255 C.3       12 UNK         0.0378 
      9 C9         31.9566   -2.0799   -1.6374 C.ar      12 UNK        -0.0802 
     10 C10        32.0496   -2.6706   -2.9007 C.ar      12 UNK        -0.0944 
     11 C11        31.5605   -2.0128   -4.0324 C.ar      12 UNK        -0.0787 
     12 C12        30.9681   -0.7553   -3.8928 C.ar      12 UNK        -0.0862 
     13 C13        30.8270   -0.1634   -2.6304 C.ar      12 UNK        -0.0733 
     14 C14        31.3476   -0.8261   -1.5142 C.ar      12 UNK        -0.0832 
     15 C15        30.1262    1.1792   -2.4064 C.3       12 UNK         0.0240 
     16 S16        29.3076    1.9284   -3.8581 S.3       12 UNK        -0.2522 
     17 C17        27.9373    0.7657   -4.1993 C.3       12 UNK        -0.0967 
     18 CA         27.7373    0.4983   -5.7151 C.3       5 UNK         0.0660 
     19 N          26.9997   -0.7476   -5.9583 N.am      5 UNK        -0.4015 
     20 C          26.7659   -1.2831   -7.1704 C.2       4 UNK         0.4946 
     21 O          27.2358   -0.8260   -8.2123 O.2       4 UNK        -0.5353 
     22 CA         25.7932   -2.4776   -7.2657 C.3       4 UNK         0.0277 
     23 CB         26.5577   -3.7908   -7.4923 C.3       4 UNK        -0.1981 
     24 N          24.9108   -2.6377   -6.1078 N.am      4 UNK        -0.4209 
     25 C          24.0442   -1.7259   -5.6427 C.2       3 UNK         0.4942 
     26 O          23.8244   -0.6474   -6.1942 O.2       3 UNK        -0.5208 
     27 CA         23.3708   -2.0370   -4.2925 C.3       3 UNK         0.0250 
     28 CB         21.9715   -2.6319   -4.5164 C.3       3 UNK        -0.1990 
     29 N          24.1476   -2.9301   -3.4184 N.am      3 UNK        -0.4232 
     30 C          25.4009   -2.7046   -2.9969 C.2       2 UNK         0.4993 
     31 O          26.0695   -1.7204   -3.3253 O.2       2 UNK        -0.5286 
     32 CA         26.0354   -3.7891   -2.1225 C.3       2 UNK         0.0209 
     33 CB         26.5114   -4.9742   -2.9811 C.3       2 UNK        -0.1931 
     34 N          27.1805   -3.2118   -1.4259 N.am      2 UNK        -0.4546 
     35 C          27.5439   -3.4973   -0.1724 C.2       1 UNK         0.5154 
     36 O          26.9773   -4.3376    0.5333 O.2       1 UNK        -0.5181 
     37 C          27.1118    1.7218   -6.4294 C.2       5 UNK         0.5014 
     38 O          27.8390    2.6632   -6.7520 O.2       5 UNK        -0.5248 
     39 N          25.7992    1.6773   -6.7198 N.am      6 UNK        -0.4434 
     40 CA         25.0756    2.6917   -7.4941 C.3       6 UNK         0.0363 
     41 CB         23.5857    2.3228   -7.5571 C.3       6 UNK        -0.1936 
     42 C          25.6312    2.9166   -8.9139 C.2       6 UNK         0.5081 
     43 O          25.4858    4.0184   -9.4440 O.2       6 UNK        -0.5248 
     44 N          26.3077    1.9117   -9.4899 N.am      7 UNK        -0.4718 
     45 CA         27.0440    2.0106  -10.7526 C.3       7 UNK         0.0273 
     46 CB         27.1299    0.6109  -11.3896 C.3       7 UNK        -0.1935 
     47 C          28.4325    2.6531  -10.5477 C.2       7 UNK         0.5018 
     48 O          29.4409    2.0743  -10.9511 O.2       7 UNK        -0.5186 
     49 N          28.4663    3.8273   -9.8982 N.am      8 UNK        -0.4240 
     50 CA         29.6462    4.6515   -9.5921 C.3       8 UNK         0.0235 
     51 CB         30.1269    5.3697  -10.8708 C.3       8 UNK        -0.2000 
     52 C          30.7818    3.8791   -8.8850 C.2       8 UNK         0.4941 
     53 O          31.9524    4.0590   -9.2252 O.2       8 UNK        -0.5273 
     54 N          30.4052    3.0040   -7.9411 N.am      9 UNK        -0.4262 
     55 CA         31.2527    2.0700   -7.1891 C.3       9 UNK         0.0264 
     56 CB         32.2730    2.8216   -6.3089 C.3       9 UNK        -0.1955 
     57 C          31.9135    0.9535   -8.0254 C.2       9 UNK         0.5031 
     58 O          32.7105    0.1963   -7.4695 O.2       9 UNK        -0.5390 
     59 N          31.5748    0.8241   -9.3159 N.am      10 UNK        -0.4204 
     60 CA         32.0689   -0.2328  -10.1953 C.3       10 UNK         0.0237 
     61 CB         32.2969    0.3399  -11.6067 C.3       10 UNK        -0.1985 
     62 C          31.0668   -1.3949  -10.1826 C.2       10 UNK         0.4970 
     63 O          30.2306   -1.4971  -11.0817 O.2       10 UNK        -0.4914 
     64 N          31.1591   -2.2382   -9.1464 N.am      11 UNK        -0.4285 
     65 CA         30.2974   -3.4171   -8.9510 C.3       11 UNK         0.1007 
     66 C          30.4303   -4.5225  -10.0410 C.2       11 UNK         0.5703 
     67 N          31.5120   -4.5736  -10.8101 N.am      11 UNK        -0.7361 
     68 O          29.5326   -5.3482  -10.1886 O.2       11 UNK        -0.4986 
     69 C69        30.4726   -4.0429   -7.5426 C.3       12 UNK        -0.0947 
     70 S70        30.0531   -2.9105   -6.1775 S.3       12 UNK        -0.2240 
     71 C71        31.6823   -2.6558   -5.4067 C.3       12 UNK         0.0194 
     72 H72        27.9078   -1.2738    4.0324 H         1 UNK         0.0906 
     73 H73        27.6228    0.3658    3.4452 H         1 UNK         0.0906 
     74 H74        26.2814   -0.7772    3.5593 H         1 UNK         0.0906 
     75 H75        28.8489   -2.6024    2.4892 H         1 UNK         0.3140 
     76 H76        28.9860   -1.9077   -0.2934 H         1 UNK         0.1085 
     77 H77        30.2027   -4.0978   -0.5128 H         1 UNK         0.0836 
     78 H78        29.8102   -4.4930    1.1394 H         1 UNK         0.0836 
     79 H79        32.7840   -3.8326   -0.6650 H         1 UNK         0.0731 
     80 H80        33.4997   -2.3173   -0.1752 H         1 UNK         0.0731 
     81 H81        32.5190   -3.6393   -3.0063 H         1 UNK         0.1312 
     82 H82        30.6048   -0.2598   -4.7799 H         1 UNK         0.1406 
     83 H83        31.2709   -0.3659   -0.5380 H         1 UNK         0.1631 
     84 H84        30.8634    1.8920   -2.0346 H         1 UNK         0.0717 
     85 H85        29.3812    1.0661   -1.6169 H         1 UNK         0.0717 
     86 H86        28.1601   -0.1723   -3.6895 H         1 UNK         0.0934 
     87 H87        27.0212    1.1392   -3.7376 H         1 UNK         0.0934 
     88 H88        28.7164    0.3365   -6.1663 H         1 UNK         0.0739 
     89 H89        26.5847   -1.1819   -5.1383 H         1 UNK         0.3093 
     90 H90        25.1558   -2.2989   -8.1338 H         1 UNK         0.0818 
     91 H91        25.8766   -4.6325   -7.6178 H         1 UNK         0.0819 
     92 H92        27.1633   -3.7362   -8.3963 H         1 UNK         0.0819 
     93 H93        27.2254   -4.0191   -6.6613 H         1 UNK         0.0819 
     94 H94        25.0176   -3.4901   -5.5787 H         1 UNK         0.3041 
     95 H95        23.2589   -1.0867   -3.7665 H         1 UNK         0.0784 
     96 H96        21.3650   -1.9771   -5.1438 H         1 UNK         0.0793 
     97 H97        22.0191   -3.6033   -5.0101 H         1 UNK         0.0793 
     98 H98        21.4374   -2.7583   -3.5745 H         1 UNK         0.0793 
     99 H99        23.6789   -3.7716   -3.1132 H         1 UNK         0.3024 
    100 H100       25.2883   -4.1276   -1.4012 H         1 UNK         0.1171 
    101 H101       26.9740   -5.7458   -2.3658 H         1 UNK         0.0786 
    102 H102       25.6795   -5.4407   -3.5098 H         1 UNK         0.0786 
    103 H103       27.2423   -4.6624   -3.7281 H         1 UNK         0.0786 
    104 H104       27.6289   -2.4537   -1.9269 H         1 UNK         0.2977 
    105 H105       25.2621    0.8611   -6.4440 H         1 UNK         0.3127 
    106 H106       25.1715    3.6375   -6.9570 H         1 UNK         0.0770 
    107 H107       23.4274    1.3775   -8.0777 H         1 UNK         0.0814 
    108 H108       23.0154    3.0870   -8.0871 H         1 UNK         0.0814 
    109 H109       23.1555    2.2314   -6.5596 H         1 UNK         0.0814 
    110 H110       26.4394    1.0517   -8.9680 H         1 UNK         0.2983 
    111 H111       26.4912    2.6543  -11.4404 H         1 UNK         0.0947 
    112 H112       27.7073   -0.0784  -10.7717 H         1 UNK         0.0806 
    113 H113       27.6160    0.6541  -12.3650 H         1 UNK         0.0806 
    114 H114       26.1405    0.1792  -11.5392 H         1 UNK         0.0806 
    115 H115       27.5742    4.1972   -9.5874 H         1 UNK         0.3000 
    116 H116       29.3149    5.4144   -8.8860 H         1 UNK         0.0850 
    117 H117       30.9325    6.0709  -10.6491 H         1 UNK         0.0810 
    118 H118       29.3214    5.9405  -11.3326 H         1 UNK         0.0810 
    119 H119       30.5039    4.6624  -11.6106 H         1 UNK         0.0810 
    120 H120       29.4138    2.9514   -7.7086 H         1 UNK         0.3040 
    121 H121       30.5769    1.5534   -6.5119 H         1 UNK         0.0766 
    122 H122       32.7840    2.1358   -5.6319 H         1 UNK         0.0812 
    123 H123       31.7830    3.5742   -5.6913 H         1 UNK         0.0812 
    124 H124       33.0382    3.3183   -6.9056 H         1 UNK         0.0812 
    125 H125       30.8712    1.4388   -9.7176 H         1 UNK         0.3205 
    126 H126       33.0316   -0.6062   -9.8392 H         1 UNK         0.0754 
    127 H127       32.6925   -0.4249  -12.2760 H         1 UNK         0.0769 
    128 H128       33.0151    1.1598  -11.5884 H         1 UNK         0.0769 
    129 H129       31.3758    0.7152  -12.0530 H         1 UNK         0.0769 
    130 H130       31.8479   -2.0590   -8.4300 H         1 UNK         0.2981 
    131 H131       29.2718   -3.0529   -9.0232 H         1 UNK         0.0541 
    132 H132       31.5833   -5.2920  -11.5132 H         1 UNK         0.3459 
    133 H133       32.2548   -3.9034  -10.6962 H         1 UNK         0.3459 
    134 H134       29.8216   -4.9122   -7.4307 H         1 UNK         0.0612 
    135 H135       31.4909   -4.4154   -7.4191 H         1 UNK         0.0612 
    136 H136       32.1947   -3.6158   -5.3287 H         1 UNK         0.0624 
    137 H137       32.2954   -2.0256   -6.0505 H         1 UNK         0.0624 
@<TRIPOS>BOND
     1    1    2 1    
     2    1   72 1    
     3    1   73 1    
     4    1   74 1    
     5    2    3 2    
     6    2    4 am   BACKBONE|DICT|INTERRES
     7    4    5 1    
     8    4   75 1    
     9    5    6 1    
    10    5   35 1    
    11    5   76 1    
    12    6    7 1    
    13    6   77 1    
    14    6   78 1    
    15    7    8 1    
    16    8    9 1    
    17    8   79 1    
    18    8   80 1    
    19    9   10 ar   
    20    9   14 ar   
    21   10   11 ar   
    22   10   81 1    
    23   11   12 ar   
    24   11   71 1    
    25   12   13 ar   
    26   12   82 1    
    27   13   14 ar   
    28   13   15 1    
    29   14   83 1    
    30   15   16 1    
    31   15   84 1    
    32   15   85 1    
    33   16   17 1    
    34   17   18 1    
    35   17   86 1    
    36   17   87 1    
    37   18   19 1    
    38   18   37 1    
    39   18   88 1    
    40   19   20 am   BACKBONE|DICT|INTERRES
    41   19   89 1    
    42   20   21 2    
    43   20   22 1    
    44   22   23 1    
    45   22   24 1    
    46   22   90 1    
    47   23   91 1    
    48   23   92 1    
    49   23   93 1    
    50   24   25 am   BACKBONE|DICT|INTERRES
    51   24   94 1    
    52   25   26 2    
    53   25   27 1    
    54   27   28 1    
    55   27   29 1    
    56   27   95 1    
    57   28   96 1    
    58   28   97 1    
    59   28   98 1    
    60   29   30 am   BACKBONE|DICT|INTERRES
    61   29   99 1    
    62   30   31 2    
    63   30   32 1    
    64   32   33 1    
    65   32   34 1    
    66   32  100 1    
    67   33  101 1    
    68   33  102 1    
    69   33  103 1    
    70   34   35 am   BACKBONE|DICT|INTERRES
    71   34  104 1    
    72   35   36 2    
    73   37   38 2    
    74   37   39 am   BACKBONE|DICT|INTERRES
    75   39   40 1    
    76   39  105 1    
    77   40   41 1    
    78   40   42 1    
    79   40  106 1    
    80   41  107 1    
    81   41  108 1    
    82   41  109 1    
    83   42   43 2    
    84   42   44 am   BACKBONE|DICT|INTERRES
    85   44   45 1    
    86   44  110 1    
    87   45   46 1    
    88   45   47 1    
    89   45  111 1    
    90   46  112 1    
    91   46  113 1    
    92   46  114 1    
    93   47   48 2    
    94   47   49 am   BACKBONE|DICT|INTERRES
    95   49   50 1    
    96   49  115 1    
    97   50   51 1    
    98   50   52 1    
    99   50  116 1    
   100   51  117 1    
   101   51  118 1    
   102   51  119 1    
   103   52   53 2    
   104   52   54 am   BACKBONE|DICT|INTERRES
   105   54   55 1    
   106   54  120 1    
   107   55   56 1    
   108   55   57 1    
   109   55  121 1    
   110   56  122 1    
   111   56  123 1    
   112   56  124 1    
   113   57   58 2    
   114   57   59 am   BACKBONE|DICT|INTERRES
   115   59   60 1    
   116   59  125 1    
   117   60   61 1    
   118   60   62 1    
   119   60  126 1    
   120   61  127 1    
   121   61  128 1    
   122   61  129 1    
   123   62   63 2    
   124   62   64 am   BACKBONE|DICT|INTERRES
   125   64   65 1    
   126   64  130 1    
   127   65   66 1    
   128   65   69 1    
   129   65  131 1    
   130   66   67 am   BACKBONE|DICT|INTERRES
   131   66   68 2    
   132   67  132 1    
   133   67  133 1    
   134   69   70 1    
   135   69  134 1    
   136   69  135 1    
   137   70   71 1    
   138   71  136 1    
   139   71  137 1    
@<TRIPOS>SUBSTRUCTURE
     1 UNK         1 GROUP             0       ****    0 ROOT    
