@<TRIPOS>MOLECULE
3R137
137   139    1
SMALL
USER_CHARGES


@<TRIPOS>ATOM
      1 CA         28.9766    2.4019   -1.8764 C.3       0 UNK        -0.2020 
      2 C          28.7661    0.8956   -1.8871 C.2       0 UNK         0.4855 
      3 O          28.5660    0.3095   -2.9490 O.2       0 UNK        -0.5197 
      4 N          28.8111    0.2527   -0.7156 N.am      1 UNK        -0.4892 
      5 CA         28.6264   -1.1923   -0.5736 C.3       1 UNK         0.0835 
      6 C6         29.4103   -1.7678    0.6311 C.3       12 UNK        -0.0855 
      7 S7         31.2146   -1.7222    0.3632 S.3       12 UNK        -0.2931 
      8 C8         31.5735   -3.4615   -0.0513 C.3       12 UNK         0.0378 
      9 C9         31.4297   -3.7463   -1.5418 C.ar      12 UNK        -0.0802 
     10 C10        32.5652   -3.7673   -2.3558 C.ar      12 UNK        -0.0944 
     11 C11        32.4668   -4.0976   -3.7102 C.ar      12 UNK        -0.0787 
     12 C12        31.2099   -4.3731   -4.2593 C.ar      12 UNK        -0.0862 
     13 C13        30.0562   -4.3226   -3.4664 C.ar      12 UNK        -0.0733 
     14 C14        30.1806   -4.0347   -2.1022 C.ar      12 UNK        -0.0832 
     15 C15        28.6782   -4.6372   -4.0486 C.3       12 UNK         0.0240 
     16 S16        28.3753   -3.9218   -5.7017 S.3       12 UNK        -0.2522 
     17 C17        28.2774   -2.1417   -5.3300 C.3       12 UNK        -0.0967 
     18 CA         27.8049   -1.3159   -6.5538 C.3       5 UNK         0.0660 
     19 N          26.4598   -1.6829   -7.0138 N.am      5 UNK        -0.4015 
     20 C          25.8380   -1.1808   -8.0910 C.2       4 UNK         0.4946 
     21 O          26.3438   -0.3511   -8.8475 O.2       4 UNK        -0.5353 
     22 CA         24.3839   -1.6174   -8.3457 C.3       4 UNK         0.0277 
     23 CB         24.3140   -3.0140   -8.9947 C.3       4 UNK        -0.1981 
     24 N          23.5291   -1.4989   -7.1545 N.am      4 UNK        -0.4209 
     25 C          23.5721   -2.2287   -6.0322 C.2       3 UNK         0.4942 
     26 O          24.2763   -3.2309   -5.8853 O.2       3 UNK        -0.5208 
     27 CA         22.7122   -1.7190   -4.8612 C.3       3 UNK         0.0250 
     28 CB         21.3289   -2.3888   -4.8791 C.3       3 UNK        -0.1990 
     29 N          23.3461   -1.9566   -3.5598 N.am      3 UNK        -0.4232 
     30 C          24.5689   -1.5361   -3.2044 C.2       2 UNK         0.4993 
     31 O          25.2791   -0.8143   -3.9103 O.2       2 UNK        -0.5286 
     32 CA         25.0904   -2.0270   -1.8470 C.3       2 UNK         0.0209 
     33 CB         25.0222   -3.5670   -1.7378 C.3       2 UNK        -0.1931 
     34 N          26.4713   -1.5807   -1.6674 N.am      2 UNK        -0.4546 
     35 C          27.1262   -1.5350   -0.5036 C.2       1 UNK         0.5154 
     36 O          26.5950   -1.7589    0.5864 O.2       1 UNK        -0.5181 
     37 C          27.9193    0.1944   -6.2748 C.2       5 UNK         0.5014 
     38 O          28.8557    0.8233   -6.7640 O.2       5 UNK        -0.5248 
     39 N          26.9418    0.7582   -5.5508 N.am      6 UNK        -0.4434 
     40 CA         26.8680    2.1845   -5.2273 C.3       6 UNK         0.0363 
     41 CB         25.8018    2.4034   -4.1416 C.3       6 UNK        -0.1936 
     42 C          26.5739    3.0744   -6.4459 C.2       6 UNK         0.5081 
     43 O          27.0160    4.2228   -6.4710 O.2       6 UNK        -0.5248 
     44 N          25.8320    2.5400   -7.4260 N.am      7 UNK        -0.4718 
     45 CA         25.4768    3.2355   -8.6646 C.3       7 UNK         0.0273 
     46 CB         24.2654    2.5503   -9.3183 C.3       7 UNK        -0.1935 
     47 C          26.6622    3.3069   -9.6381 C.2       7 UNK         0.5018 
     48 O          26.9287    4.3736  -10.1929 O.2       7 UNK        -0.5186 
     49 N          27.3587    2.1760   -9.8144 N.am      8 UNK        -0.4240 
     50 CA         28.5586    2.0642  -10.6466 C.3       8 UNK         0.0235 
     51 CB         28.7648    0.5881  -11.0141 C.3       8 UNK        -0.2000 
     52 C          29.8217    2.6347   -9.9768 C.2       8 UNK         0.4941 
     53 O          30.7931    2.9202  -10.6787 O.2       8 UNK        -0.5273 
     54 N          29.8079    2.7551   -8.6416 N.am      9 UNK        -0.4262 
     55 CA         30.8665    3.2098   -7.7311 C.3       9 UNK         0.0264 
     56 CB         31.3327    4.6432   -8.0522 C.3       9 UNK        -0.1955 
     57 C          32.0502    2.2337   -7.6316 C.2       9 UNK         0.5031 
     58 O          32.4299    1.8499   -6.5249 O.2       9 UNK        -0.5390 
     59 N          32.5984    1.8201   -8.7787 N.am      10 UNK        -0.4204 
     60 CA         33.7183    0.8859   -8.9065 C.3       10 UNK         0.0237 
     61 CB         34.4834    1.2123  -10.2034 C.3       10 UNK        -0.1985 
     62 C          33.2615   -0.5860   -8.8380 C.2       10 UNK         0.4970 
     63 O          33.6311   -1.3775   -9.7069 O.2       10 UNK        -0.4914 
     64 N          32.4597   -0.9245   -7.8178 N.am      11 UNK        -0.4285 
     65 CA         31.9377   -2.2753   -7.5232 C.3       11 UNK         0.1007 
     66 C          30.9730   -2.8678   -8.5979 C.2       11 UNK         0.5703 
     67 N          30.4694   -2.0840   -9.5415 N.am      11 UNK        -0.7361 
     68 O          30.6509   -4.0526   -8.5642 O.2       11 UNK        -0.4986 
     69 C69        33.0660   -3.2751   -7.1376 C.3       12 UNK        -0.0947 
     70 S70        33.9772   -2.7679   -5.6402 S.3       12 UNK        -0.2240 
     71 C71        33.7309   -4.2075   -4.5533 C.3       12 UNK         0.0194 
     72 H72        28.0512    2.9137   -2.1374 H         1 UNK         0.0906 
     73 H73        29.7363    2.6778   -2.6073 H         1 UNK         0.0906 
     74 H74        29.3011    2.7602   -0.8997 H         1 UNK         0.0906 
     75 H75        28.9619    0.7675    0.1405 H         1 UNK         0.3140 
     76 H76        29.0146   -1.6770   -1.4706 H         1 UNK         0.1085 
     77 H77        29.1084   -2.7966    0.8359 H         1 UNK         0.0836 
     78 H78        29.1804   -1.2088    1.5402 H         1 UNK         0.0836 
     79 H79        32.5937   -3.6812    0.2678 H         1 UNK         0.0731 
     80 H80        30.9381   -4.1347    0.5257 H         1 UNK         0.0731 
     81 H81        33.5349   -3.5567   -1.9254 H         1 UNK         0.1312 
     82 H82        31.1277   -4.6384   -5.3036 H         1 UNK         0.1406 
     83 H83        29.3033   -4.0443   -1.4705 H         1 UNK         0.1631 
     84 H84        27.8896   -4.2967   -3.3762 H         1 UNK         0.0717 
     85 H85        28.5757   -5.7207   -4.1187 H         1 UNK         0.0717 
     86 H86        27.6073   -1.9940   -4.4826 H         1 UNK         0.0934 
     87 H87        29.2644   -1.8108   -4.9991 H         1 UNK         0.0934 
     88 H88        28.4823   -1.5302   -7.3825 H         1 UNK         0.0739 
     89 H89        25.9492   -2.3527   -6.4455 H         1 UNK         0.3093 
     90 H90        23.9705   -0.9119   -9.0683 H         1 UNK         0.0818 
     91 H91        24.8449   -3.0220   -9.9475 H         1 UNK         0.0819 
     92 H92        24.7667   -3.7852   -8.3711 H         1 UNK         0.0819 
     93 H93        23.2835   -3.3068   -9.1953 H         1 UNK         0.0819 
     94 H94        22.9086   -0.7007   -7.1624 H         1 UNK         0.3041 
     95 H95        22.5830   -0.6397   -4.9659 H         1 UNK         0.0784 
     96 H96        20.8169   -2.2066   -5.8251 H         1 UNK         0.0793 
     97 H97        21.4037   -3.4699   -4.7530 H         1 UNK         0.0793 
     98 H98        20.6880   -2.0010   -4.0869 H         1 UNK         0.0793 
     99 H99        22.8461   -2.5641   -2.9280 H         1 UNK         0.3024 
    100 H100       24.4697   -1.5743   -1.0704 H         1 UNK         0.1171 
    101 H101       23.9937   -3.9270   -1.7723 H         1 UNK         0.0786 
    102 H102       25.5636   -4.0498   -2.5522 H         1 UNK         0.0786 
    103 H103       25.4447   -3.9251   -0.7990 H         1 UNK         0.0786 
    104 H104       26.9217   -1.2307   -2.5075 H         1 UNK         0.2977 
    105 H105       26.2529    0.1548   -5.1023 H         1 UNK         0.3127 
    106 H106       27.8371    2.4850   -4.8236 H         1 UNK         0.0770 
    107 H107       24.8097    2.1094   -4.4865 H         1 UNK         0.0814 
    108 H108       25.7510    3.4526   -3.8481 H         1 UNK         0.0814 
    109 H109       26.0251    1.8252   -3.2450 H         1 UNK         0.0814 
    110 H110       25.5490    1.5749   -7.3395 H         1 UNK         0.2983 
    111 H111       25.1898    4.2597   -8.4147 H         1 UNK         0.0947 
    112 H112       23.9602    3.0823  -10.2204 H         1 UNK         0.0806 
    113 H113       23.4071    2.5356   -8.6465 H         1 UNK         0.0806 
    114 H114       24.4841    1.5224   -9.6079 H         1 UNK         0.0806 
    115 H115       27.0398    1.3247   -9.3544 H         1 UNK         0.3000 
    116 H116       28.3998    2.6268  -11.5692 H         1 UNK         0.0850 
    117 H117       29.6800    0.4432  -11.5900 H         1 UNK         0.0810 
    118 H118       27.9377    0.2134  -11.6174 H         1 UNK         0.0810 
    119 H119       28.8276   -0.0323  -10.1207 H         1 UNK         0.0810 
    120 H120       29.0093    2.3568   -8.1593 H         1 UNK         0.3040 
    121 H121       30.4016    3.2347   -6.7440 H         1 UNK         0.0766 
    122 H122       31.8309    4.7091   -9.0196 H         1 UNK         0.0812 
    123 H123       32.0397    4.9970   -7.3008 H         1 UNK         0.0812 
    124 H124       30.4928    5.3379   -8.0598 H         1 UNK         0.0812 
    125 H125       32.1772    2.1661   -9.6388 H         1 UNK         0.3205 
    126 H126       34.4050    1.0415   -8.0716 H         1 UNK         0.0754 
    127 H127       35.3630    0.5763  -10.3122 H         1 UNK         0.0769 
    128 H128       34.8322    2.2452  -10.2081 H         1 UNK         0.0769 
    129 H129       33.8604    1.0652  -11.0867 H         1 UNK         0.0769 
    130 H130       32.2145   -0.1993   -7.1538 H         1 UNK         0.2981 
    131 H131       31.3050   -2.1501   -6.6438 H         1 UNK         0.0541 
    132 H132       29.8468   -2.4801  -10.2269 H         1 UNK         0.3459 
    133 H133       30.7453   -1.1187   -9.5978 H         1 UNK         0.3459 
    134 H134       33.7821   -3.3830   -7.9531 H         1 UNK         0.0612 
    135 H135       32.6598   -4.2741   -6.9791 H         1 UNK         0.0612 
    136 H136       33.7139   -5.1287   -5.1372 H         1 UNK         0.0624 
    137 H137       34.6041   -4.2898   -3.9043 H         1 UNK         0.0624 
@<TRIPOS>BOND
     1    1    2 1    
     2    1   72 1    
     3    1   73 1    
     4    1   74 1    
     5    2    3 2    
     6    2    4 am   BACKBONE|DICT|INTERRES
     7    4    5 1    
     8    4   75 1    
     9    5    6 1    
    10    5   35 1    
    11    5   76 1    
    12    6    7 1    
    13    6   77 1    
    14    6   78 1    
    15    7    8 1    
    16    8    9 1    
    17    8   79 1    
    18    8   80 1    
    19    9   10 ar   
    20    9   14 ar   
    21   10   11 ar   
    22   10   81 1    
    23   11   12 ar   
    24   11   71 1    
    25   12   13 ar   
    26   12   82 1    
    27   13   14 ar   
    28   13   15 1    
    29   14   83 1    
    30   15   16 1    
    31   15   84 1    
    32   15   85 1    
    33   16   17 1    
    34   17   18 1    
    35   17   86 1    
    36   17   87 1    
    37   18   19 1    
    38   18   37 1    
    39   18   88 1    
    40   19   20 am   BACKBONE|DICT|INTERRES
    41   19   89 1    
    42   20   21 2    
    43   20   22 1    
    44   22   23 1    
    45   22   24 1    
    46   22   90 1    
    47   23   91 1    
    48   23   92 1    
    49   23   93 1    
    50   24   25 am   BACKBONE|DICT|INTERRES
    51   24   94 1    
    52   25   26 2    
    53   25   27 1    
    54   27   28 1    
    55   27   29 1    
    56   27   95 1    
    57   28   96 1    
    58   28   97 1    
    59   28   98 1    
    60   29   30 am   BACKBONE|DICT|INTERRES
    61   29   99 1    
    62   30   31 2    
    63   30   32 1    
    64   32   33 1    
    65   32   34 1    
    66   32  100 1    
    67   33  101 1    
    68   33  102 1    
    69   33  103 1    
    70   34   35 am   BACKBONE|DICT|INTERRES
    71   34  104 1    
    72   35   36 2    
    73   37   38 2    
    74   37   39 am   BACKBONE|DICT|INTERRES
    75   39   40 1    
    76   39  105 1    
    77   40   41 1    
    78   40   42 1    
    79   40  106 1    
    80   41  107 1    
    81   41  108 1    
    82   41  109 1    
    83   42   43 2    
    84   42   44 am   BACKBONE|DICT|INTERRES
    85   44   45 1    
    86   44  110 1    
    87   45   46 1    
    88   45   47 1    
    89   45  111 1    
    90   46  112 1    
    91   46  113 1    
    92   46  114 1    
    93   47   48 2    
    94   47   49 am   BACKBONE|DICT|INTERRES
    95   49   50 1    
    96   49  115 1    
    97   50   51 1    
    98   50   52 1    
    99   50  116 1    
   100   51  117 1    
   101   51  118 1    
   102   51  119 1    
   103   52   53 2    
   104   52   54 am   BACKBONE|DICT|INTERRES
   105   54   55 1    
   106   54  120 1    
   107   55   56 1    
   108   55   57 1    
   109   55  121 1    
   110   56  122 1    
   111   56  123 1    
   112   56  124 1    
   113   57   58 2    
   114   57   59 am   BACKBONE|DICT|INTERRES
   115   59   60 1    
   116   59  125 1    
   117   60   61 1    
   118   60   62 1    
   119   60  126 1    
   120   61  127 1    
   121   61  128 1    
   122   61  129 1    
   123   62   63 2    
   124   62   64 am   BACKBONE|DICT|INTERRES
   125   64   65 1    
   126   64  130 1    
   127   65   66 1    
   128   65   69 1    
   129   65  131 1    
   130   66   67 am   BACKBONE|DICT|INTERRES
   131   66   68 2    
   132   67  132 1    
   133   67  133 1    
   134   69   70 1    
   135   69  134 1    
   136   69  135 1    
   137   70   71 1    
   138   71  136 1    
   139   71  137 1    
@<TRIPOS>SUBSTRUCTURE
     1 UNK         1 GROUP             0       ****    0 ROOT    
