@<TRIPOS>MOLECULE
3R137
137   139    1
SMALL
USER_CHARGES


@<TRIPOS>ATOM
      1 CA         31.1754   -0.0952    0.3407 C.3       0 UNK        -0.2020 
      2 C          30.0259   -1.0919    0.3464 C.2       0 UNK         0.4855 
      3 O          29.4123   -1.3117    1.3903 O.2       0 UNK        -0.5197 
      4 N          29.7312   -1.6905   -0.8167 N.am      1 UNK        -0.4892 
      5 CA         28.6670   -2.6853   -1.0373 C.3       1 UNK         0.0835 
      6 C6         28.8943   -3.9937   -0.2214 C.3       12 UNK        -0.0855 
      7 S7         28.5210   -5.5205   -1.1535 S.3       12 UNK        -0.2931 
      8 C8         30.1006   -5.8520   -2.0102 C.3       12 UNK         0.0378 
      9 C9         30.2510   -4.9539   -3.2286 C.ar      12 UNK        -0.0802 
     10 C10        30.9916   -3.7705   -3.1517 C.ar      12 UNK        -0.0944 
     11 C11        31.0025   -2.8645   -4.2174 C.ar      12 UNK        -0.0787 
     12 C12        30.3076   -3.1893   -5.3892 C.ar      12 UNK        -0.0862 
     13 C13        29.6160   -4.3996   -5.5030 C.ar      12 UNK        -0.0733 
     14 C14        29.5913   -5.2777   -4.4167 C.ar      12 UNK        -0.0832 
     15 C15        28.9026   -4.7576   -6.8018 C.3       12 UNK         0.0240 
     16 S16        27.1234   -5.1106   -6.5934 S.3       12 UNK        -0.2522 
     17 C17        26.4636   -3.5701   -5.8728 C.3       12 UNK        -0.0967 
     18 CA         26.2781   -2.4370   -6.9215 C.3       5 UNK         0.0660 
     19 N          24.9944   -1.7420   -6.7763 N.am      5 UNK        -0.4015 
     20 C          24.5237   -0.7812   -7.5888 C.2       4 UNK         0.4946 
     21 O          25.1544   -0.3144   -8.5354 O.2       4 UNK        -0.5353 
     22 CA         23.1079   -0.2445   -7.3136 C.3       4 UNK         0.0277 
     23 CB         22.0962   -0.8924   -8.2724 C.3       4 UNK        -0.1981 
     24 N          22.6808   -0.4698   -5.9322 N.am      4 UNK        -0.4209 
     25 C          23.1259    0.2395   -4.8877 C.2       3 UNK         0.4942 
     26 O          23.8173    1.2546   -5.0022 O.2       3 UNK        -0.5208 
     27 CA         22.7484   -0.2772   -3.4835 C.3       3 UNK         0.0250 
     28 CB         22.3619   -1.7746   -3.4502 C.3       3 UNK        -0.1990 
     29 N          23.7962   -0.0148   -2.4906 N.am      3 UNK        -0.4232 
     30 C          25.0871   -0.3793   -2.5445 C.2       2 UNK         0.4993 
     31 O          25.6027   -0.9859   -3.4921 O.2       2 UNK        -0.5286 
     32 CA         25.9575    0.0548   -1.3468 C.3       2 UNK         0.0209 
     33 CB         25.1902    0.1265   -0.0056 C.3       2 UNK        -0.1931 
     34 N          27.1627   -0.7683   -1.2137 N.am      2 UNK        -0.4546 
     35 C          27.2484   -2.0789   -0.9323 C.2       1 UNK         0.5154 
     36 O          26.2859   -2.7878   -0.6323 O.2       1 UNK        -0.5181 
     37 C          27.4682   -1.4641   -6.9010 C.2       5 UNK         0.5014 
     38 O          28.2742   -1.4698   -7.8330 O.2       5 UNK        -0.5248 
     39 N          27.5367   -0.6275   -5.8544 N.am      6 UNK        -0.4434 
     40 CA         28.5969    0.3675   -5.6751 C.3       6 UNK         0.0363 
     41 CB         28.4530    1.0361   -4.3006 C.3       6 UNK        -0.1936 
     42 C          28.6470    1.4189   -6.7952 C.2       6 UNK         0.5081 
     43 O          29.7397    1.8355   -7.1798 O.2       6 UNK        -0.5248 
     44 N          27.4721    1.8007   -7.3143 N.am      7 UNK        -0.4718 
     45 CA         27.3262    2.7146   -8.4462 C.3       7 UNK         0.0273 
     46 CB         25.8793    3.2303   -8.5131 C.3       7 UNK        -0.1935 
     47 C          27.7425    2.0624   -9.7739 C.2       7 UNK         0.5018 
     48 O          28.4971    2.6736  -10.5299 O.2       7 UNK        -0.5186 
     49 N          27.2645    0.8344  -10.0246 N.am      8 UNK        -0.4240 
     50 CA         27.5481    0.0520  -11.2312 C.3       8 UNK         0.0235 
     51 CB         26.6580   -1.2013  -11.2580 C.3       8 UNK        -0.2000 
     52 C          29.0281   -0.3354  -11.3672 C.2       8 UNK         0.4941 
     53 O          29.5832   -0.2228  -12.4609 O.2       8 UNK        -0.5273 
     54 N          29.6443   -0.7650  -10.2577 N.am      9 UNK        -0.4262 
     55 CA         31.0701   -1.0949  -10.1873 C.3       9 UNK         0.0264 
     56 CB         31.3114   -1.9981   -8.9708 C.3       9 UNK        -0.1955 
     57 C          31.9802    0.1446  -10.1131 C.2       9 UNK         0.5031 
     58 O          33.1787    0.0119  -10.3653 O.2       9 UNK        -0.5390 
     59 N          31.4079    1.3058   -9.7572 N.am      10 UNK        -0.4204 
     60 CA         32.0675    2.5925   -9.5099 C.3       10 UNK         0.0237 
     61 CB         32.6572    3.1728  -10.8132 C.3       10 UNK        -0.1985 
     62 C          33.0898    2.4986   -8.3611 C.2       10 UNK         0.4970 
     63 O          34.2489    2.8856   -8.5266 O.2       10 UNK        -0.4914 
     64 N          32.6371    1.9573   -7.2234 N.am      11 UNK        -0.4285 
     65 CA         33.4289    1.7948   -5.9961 C.3       11 UNK         0.1007 
     66 C          33.8234    3.1564   -5.3597 C.2       11 UNK         0.5703 
     67 N          34.9953    3.2360   -4.7438 N.am      11 UNK        -0.7361 
     68 O          33.0636    4.1235   -5.3818 O.2       11 UNK        -0.4986 
     69 C69        32.6983    0.9045   -4.9591 C.3       12 UNK        -0.0947 
     70 S70        32.4280   -0.8023   -5.5392 S.3       12 UNK        -0.2240 
     71 C71        31.6865   -1.5100   -4.0320 C.3       12 UNK         0.0194 
     72 H72        31.6298    0.0030   -0.6449 H         1 UNK         0.0906 
     73 H73        30.8208    0.8878    0.6498 H         1 UNK         0.0906 
     74 H74        31.9490   -0.4124    1.0395 H         1 UNK         0.0906 
     75 H75        30.2794   -1.4631   -1.6328 H         1 UNK         0.3140 
     76 H76        28.7316   -2.9344   -2.0953 H         1 UNK         0.1085 
     77 H77        29.9321   -4.0628    0.1078 H         1 UNK         0.0836 
     78 H78        28.3089   -3.9872    0.6999 H         1 UNK         0.0836 
     79 H79        30.9379   -5.7247   -1.3224 H         1 UNK         0.0731 
     80 H80        30.1203   -6.8970   -2.3234 H         1 UNK         0.0731 
     81 H81        31.5016   -3.5242   -2.2303 H         1 UNK         0.1312 
     82 H82        30.2919   -2.4943   -6.2142 H         1 UNK         0.1406 
     83 H83        29.0268   -6.1981   -4.4847 H         1 UNK         0.1631 
     84 H84        29.3808   -5.6420   -7.2245 H         1 UNK         0.0717 
     85 H85        29.0234   -3.9712   -7.5463 H         1 UNK         0.0717 
     86 H86        27.0743   -3.2673   -5.0189 H         1 UNK         0.0934 
     87 H87        25.5008   -3.8400   -5.4363 H         1 UNK         0.0934 
     88 H88        26.2520   -2.8809   -7.9192 H         1 UNK         0.0739 
     89 H89        24.4208   -2.0252   -5.9972 H         1 UNK         0.3093 
     90 H90        23.1207    0.8305   -7.5075 H         1 UNK         0.0818 
     91 H91        21.0976   -0.4769   -8.1361 H         1 UNK         0.0819 
     92 H92        22.3785   -0.7171   -9.3117 H         1 UNK         0.0819 
     93 H93        22.0345   -1.9721   -8.1301 H         1 UNK         0.0819 
     94 H94        22.0844   -1.2667   -5.7595 H         1 UNK         0.3041 
     95 H95        21.8773    0.3012   -3.1723 H         1 UNK         0.0784 
     96 H96        21.4672   -1.9756   -4.0404 H         1 UNK         0.0793 
     97 H97        23.1644   -2.4117   -3.8244 H         1 UNK         0.0793 
     98 H98        22.1402   -2.0964   -2.4323 H         1 UNK         0.0793 
     99 H99        23.4995    0.5210   -1.6875 H         1 UNK         0.3024 
    100 H100       26.3060    1.0616   -1.5830 H         1 UNK         0.1171 
    101 H101       25.8670    0.3355    0.8233 H         1 UNK         0.0786 
    102 H102       24.6733   -0.8075    0.2185 H         1 UNK         0.0786 
    103 H103       24.4461    0.9234   -0.0103 H         1 UNK         0.0786 
    104 H104       28.0288   -0.3002   -1.4341 H         1 UNK         0.2977 
    105 H105       26.8302   -0.6926   -5.1258 H         1 UNK         0.3127 
    106 H106       29.5483   -0.1642   -5.6974 H         1 UNK         0.0770 
    107 H107       27.4876    1.5323   -4.1930 H         1 UNK         0.0814 
    108 H108       29.2281    1.7884   -4.1475 H         1 UNK         0.0814 
    109 H109       28.5482    0.3050   -3.4996 H         1 UNK         0.0814 
    110 H110       26.6288    1.3763   -6.9553 H         1 UNK         0.2983 
    111 H111       27.9830    3.5713   -8.2780 H         1 UNK         0.0947 
    112 H112       25.7550    3.9331   -9.3380 H         1 UNK         0.0806 
    113 H113       25.6028    3.7538   -7.5978 H         1 UNK         0.0806 
    114 H114       25.1638    2.4214   -8.6645 H         1 UNK         0.0806 
    115 H115       26.6167    0.4146   -9.3590 H         1 UNK         0.3000 
    116 H116       27.2895    0.6711  -12.0928 H         1 UNK         0.0850 
    117 H117       26.8476   -1.7987  -12.1508 H         1 UNK         0.0810 
    118 H118       25.6009   -0.9351  -11.2641 H         1 UNK         0.0810 
    119 H119       26.8354   -1.8396  -10.3913 H         1 UNK         0.0810 
    120 H120       29.1017   -0.8839   -9.4025 H         1 UNK         0.3040 
    121 H121       31.3448   -1.6525  -11.0853 H         1 UNK         0.0766 
    122 H122       32.3588   -2.2937   -8.8977 H         1 UNK         0.0812 
    123 H123       31.0535   -1.4780   -8.0498 H         1 UNK         0.0812 
    124 H124       30.7165   -2.9095   -9.0247 H         1 UNK         0.0812 
    125 H125       30.4167    1.2907   -9.5570 H         1 UNK         0.3205 
    126 H126       31.2863    3.2749   -9.1709 H         1 UNK         0.0754 
    127 H127       33.0536    4.1754  -10.6483 H         1 UNK         0.0769 
    128 H128       31.8962    3.2486  -11.5901 H         1 UNK         0.0769 
    129 H129       33.4724    2.5608  -11.2004 H         1 UNK         0.0769 
    130 H130       31.6485    1.7308   -7.1574 H         1 UNK         0.2981 
    131 H131       34.3525    1.2869   -6.2813 H         1 UNK         0.0541 
    132 H132       35.6215    2.4466   -4.7089 H         1 UNK         0.3459 
    133 H133       35.2629    4.1065   -4.3116 H         1 UNK         0.3459 
    134 H134       31.7331    1.3420   -4.6971 H         1 UNK         0.0612 
    135 H135       33.2742    0.8483   -4.0332 H         1 UNK         0.0612 
    136 H136       32.4690   -1.5829   -3.2750 H         1 UNK         0.0624 
    137 H137       30.9436   -0.8107   -3.6480 H         1 UNK         0.0624 
@<TRIPOS>BOND
     1    1    2 1    
     2    1   72 1    
     3    1   73 1    
     4    1   74 1    
     5    2    3 2    
     6    2    4 am   BACKBONE|DICT|INTERRES
     7    4    5 1    
     8    4   75 1    
     9    5    6 1    
    10    5   35 1    
    11    5   76 1    
    12    6    7 1    
    13    6   77 1    
    14    6   78 1    
    15    7    8 1    
    16    8    9 1    
    17    8   79 1    
    18    8   80 1    
    19    9   10 ar   
    20    9   14 ar   
    21   10   11 ar   
    22   10   81 1    
    23   11   12 ar   
    24   11   71 1    
    25   12   13 ar   
    26   12   82 1    
    27   13   14 ar   
    28   13   15 1    
    29   14   83 1    
    30   15   16 1    
    31   15   84 1    
    32   15   85 1    
    33   16   17 1    
    34   17   18 1    
    35   17   86 1    
    36   17   87 1    
    37   18   19 1    
    38   18   37 1    
    39   18   88 1    
    40   19   20 am   BACKBONE|DICT|INTERRES
    41   19   89 1    
    42   20   21 2    
    43   20   22 1    
    44   22   23 1    
    45   22   24 1    
    46   22   90 1    
    47   23   91 1    
    48   23   92 1    
    49   23   93 1    
    50   24   25 am   BACKBONE|DICT|INTERRES
    51   24   94 1    
    52   25   26 2    
    53   25   27 1    
    54   27   28 1    
    55   27   29 1    
    56   27   95 1    
    57   28   96 1    
    58   28   97 1    
    59   28   98 1    
    60   29   30 am   BACKBONE|DICT|INTERRES
    61   29   99 1    
    62   30   31 2    
    63   30   32 1    
    64   32   33 1    
    65   32   34 1    
    66   32  100 1    
    67   33  101 1    
    68   33  102 1    
    69   33  103 1    
    70   34   35 am   BACKBONE|DICT|INTERRES
    71   34  104 1    
    72   35   36 2    
    73   37   38 2    
    74   37   39 am   BACKBONE|DICT|INTERRES
    75   39   40 1    
    76   39  105 1    
    77   40   41 1    
    78   40   42 1    
    79   40  106 1    
    80   41  107 1    
    81   41  108 1    
    82   41  109 1    
    83   42   43 2    
    84   42   44 am   BACKBONE|DICT|INTERRES
    85   44   45 1    
    86   44  110 1    
    87   45   46 1    
    88   45   47 1    
    89   45  111 1    
    90   46  112 1    
    91   46  113 1    
    92   46  114 1    
    93   47   48 2    
    94   47   49 am   BACKBONE|DICT|INTERRES
    95   49   50 1    
    96   49  115 1    
    97   50   51 1    
    98   50   52 1    
    99   50  116 1    
   100   51  117 1    
   101   51  118 1    
   102   51  119 1    
   103   52   53 2    
   104   52   54 am   BACKBONE|DICT|INTERRES
   105   54   55 1    
   106   54  120 1    
   107   55   56 1    
   108   55   57 1    
   109   55  121 1    
   110   56  122 1    
   111   56  123 1    
   112   56  124 1    
   113   57   58 2    
   114   57   59 am   BACKBONE|DICT|INTERRES
   115   59   60 1    
   116   59  125 1    
   117   60   61 1    
   118   60   62 1    
   119   60  126 1    
   120   61  127 1    
   121   61  128 1    
   122   61  129 1    
   123   62   63 2    
   124   62   64 am   BACKBONE|DICT|INTERRES
   125   64   65 1    
   126   64  130 1    
   127   65   66 1    
   128   65   69 1    
   129   65  131 1    
   130   66   67 am   BACKBONE|DICT|INTERRES
   131   66   68 2    
   132   67  132 1    
   133   67  133 1    
   134   69   70 1    
   135   69  134 1    
   136   69  135 1    
   137   70   71 1    
   138   71  136 1    
   139   71  137 1    
@<TRIPOS>SUBSTRUCTURE
     1 UNK         1 GROUP             0       ****    0 ROOT    
