@<TRIPOS>MOLECULE
3R137
137   139    1
SMALL
USER_CHARGES


@<TRIPOS>ATOM
      1 CA         24.2215   -4.4534   -4.7931 C.3       0 UNK        -0.2020 
      2 C          24.9457   -5.3674   -3.8175 C.2       0 UNK         0.4855 
      3 O          24.8837   -6.5880   -3.9635 O.2       0 UNK        -0.5197 
      4 N          25.6168   -4.7874   -2.8168 N.am      1 UNK        -0.4892 
      5 CA         26.3630   -5.4934   -1.7666 C.3       1 UNK         0.0835 
      6 C6         27.8514   -5.0510   -1.7270 C.3       12 UNK        -0.0855 
      7 S7         28.1157   -3.2619   -1.4391 S.3       12 UNK        -0.2931 
      8 C8         29.7019   -2.9831   -2.2897 C.3       12 UNK         0.0378 
      9 C9         29.5364   -2.2582   -3.6201 C.ar      12 UNK        -0.0802 
     10 C10        30.1556   -1.0194   -3.8193 C.ar      12 UNK        -0.0944 
     11 C11        30.0597   -0.3661   -5.0507 C.ar      12 UNK        -0.0787 
     12 C12        29.3378   -0.9594   -6.0879 C.ar      12 UNK        -0.0862 
     13 C13        28.6947   -2.1868   -5.8987 C.ar      12 UNK        -0.0733 
     14 C14        28.8002   -2.8327   -4.6626 C.ar      12 UNK        -0.0832 
     15 C15        27.9092   -2.8291   -7.0345 C.3       12 UNK         0.0240 
     16 S16        26.1551   -2.3313   -7.0294 S.3       12 UNK        -0.2522 
     17 C17        26.2565   -0.5830   -7.5458 C.3       12 UNK        -0.0967 
     18 CA         25.8432    0.4426   -6.4521 C.3       5 UNK         0.0660 
     19 N          26.3763    0.1086   -5.1283 N.am      5 UNK        -0.4015 
     20 C          25.9121    0.5919   -3.9713 C.2       4 UNK         0.4946 
     21 O          24.9316    1.3355   -3.8727 O.2       4 UNK        -0.5353 
     22 CA         26.6990    0.1984   -2.7114 C.3       4 UNK         0.0277 
     23 CB         27.7033    1.2989   -2.3331 C.3       4 UNK        -0.1981 
     24 N          25.8108   -0.0661   -1.5780 N.am      4 UNK        -0.4209 
     25 C          25.0036   -1.1300   -1.5073 C.2       3 UNK         0.4942 
     26 O          24.9497   -2.0108   -2.3742 O.2       3 UNK        -0.5208 
     27 CA         24.1122   -1.2451   -0.2631 C.3       3 UNK         0.0250 
     28 CB         22.8542   -0.3686   -0.3852 C.3       3 UNK        -0.1990 
     29 N          23.7317   -2.6455   -0.1721 N.am      3 UNK        -0.4232 
     30 C          23.5475   -3.3777    0.9295 C.2       2 UNK         0.4993 
     31 O          23.4806   -2.9156    2.0688 O.2       2 UNK        -0.5286 
     32 CA         23.4676   -4.8998    0.7048 C.3       2 UNK         0.0209 
     33 CB         22.0140   -5.3400    0.4669 C.3       2 UNK        -0.1931 
     34 N          24.2985   -5.3123   -0.4351 N.am      2 UNK        -0.4546 
     35 C          25.6397   -5.3659   -0.4062 C.2       1 UNK         0.5154 
     36 O          26.2884   -5.2922    0.6393 O.2       1 UNK        -0.5181 
     37 C          26.2930    1.8600   -6.8669 C.2       5 UNK         0.5014 
     38 O          27.2091    2.4236   -6.2594 O.2       5 UNK        -0.5248 
     39 N          25.7105    2.3829   -7.9552 N.am      6 UNK        -0.4434 
     40 CA         26.0903    3.6477   -8.5998 C.3       6 UNK         0.0363 
     41 CB         24.9350    4.1107   -9.5074 C.3       6 UNK        -0.1936 
     42 C          27.4337    3.5437   -9.3581 C.2       6 UNK         0.5081 
     43 O          27.4794    3.7401  -10.5728 O.2       6 UNK        -0.5248 
     44 N          28.4955    3.1942   -8.6190 N.am      7 UNK        -0.4718 
     45 CA         29.8910    3.0019   -9.0364 C.3       7 UNK         0.0273 
     46 CB         30.5111    4.3283   -9.5208 C.3       7 UNK        -0.1935 
     47 C          30.1238    1.8496  -10.0336 C.2       7 UNK         0.5018 
     48 O          31.2046    1.7747  -10.6190 O.2       7 UNK        -0.5186 
     49 N          29.1432    0.9453  -10.1786 N.am      8 UNK        -0.4240 
     50 CA         29.1323   -0.1677  -11.1389 C.3       8 UNK         0.0235 
     51 CB         27.7779   -0.8914  -11.0608 C.3       8 UNK        -0.2000 
     52 C          30.2876   -1.1772  -10.9921 C.2       8 UNK         0.4941 
     53 O          30.6445   -1.8240  -11.9766 O.2       8 UNK        -0.5273 
     54 N          30.8672   -1.2755   -9.7880 N.am      9 UNK        -0.4262 
     55 CA         32.0450   -2.0937   -9.4829 C.3       9 UNK         0.0264 
     56 CB         31.8985   -2.6696   -8.0619 C.3       9 UNK        -0.1955 
     57 C          33.3735   -1.3244   -9.6609 C.2       9 UNK         0.5031 
     58 O          34.4000   -1.7896   -9.1637 O.2       9 UNK        -0.5390 
     59 N          33.3383   -0.1736  -10.3542 N.am      10 UNK        -0.4204 
     60 CA         34.4394    0.7664  -10.6027 C.3       10 UNK         0.0237 
     61 CB         35.5810    0.1096  -11.4096 C.3       10 UNK        -0.1985 
     62 C          34.9140    1.4528   -9.3088 C.2       10 UNK         0.4970 
     63 O          36.1170    1.5461   -9.0575 O.2       10 UNK        -0.4914 
     64 N          33.9449    1.9159   -8.5094 N.am      11 UNK        -0.4285 
     65 CA         34.1653    2.5670   -7.2060 C.3       11 UNK         0.1007 
     66 C          34.6611    4.0403   -7.2915 C.2       11 UNK         0.5703 
     67 N          34.6769    4.6738   -8.4587 N.am      11 UNK        -0.7361 
     68 O          35.0465    4.6176   -6.2776 O.2       11 UNK        -0.4986 
     69 C69        32.9243    2.4505   -6.2798 C.3       12 UNK        -0.0947 
     70 S70        32.3545    0.7302   -6.0892 S.3       12 UNK        -0.2240 
     71 C71        30.7500    0.9706   -5.2727 C.3       12 UNK         0.0194 
     72 H72        24.5000   -4.7019   -5.8168 H         1 UNK         0.0906 
     73 H73        23.1434   -4.5741   -4.6937 H         1 UNK         0.0906 
     74 H74        24.4641   -3.4041   -4.6248 H         1 UNK         0.0906 
     75 H75        25.5962   -3.7723   -2.7237 H         1 UNK         0.3140 
     76 H76        26.3656   -6.5652   -1.9759 H         1 UNK         0.1085 
     77 H77        28.3188   -5.3293   -2.6722 H         1 UNK         0.0836 
     78 H78        28.3965   -5.6074   -0.9622 H         1 UNK         0.0836 
     79 H79        30.2214   -3.9280   -2.4533 H         1 UNK         0.0731 
     80 H80        30.3412   -2.4052   -1.6205 H         1 UNK         0.0731 
     81 H81        30.7290   -0.5682   -3.0210 H         1 UNK         0.1312 
     82 H82        29.2896   -0.4604   -7.0437 H         1 UNK         0.1406 
     83 H83        28.3141   -3.7870   -4.5136 H         1 UNK         0.1631 
     84 H84        27.9609   -3.9155   -6.9481 H         1 UNK         0.0717 
     85 H85        28.3605   -2.5851   -7.9973 H         1 UNK         0.0717 
     86 H86        27.2599   -0.3823   -7.9177 H         1 UNK         0.0934 
     87 H87        25.6068   -0.4722   -8.4158 H         1 UNK         0.0934 
     88 H88        24.7534    0.4437   -6.3793 H         1 UNK         0.0739 
     89 H89        27.1939   -0.4853   -5.1212 H         1 UNK         0.3093 
     90 H90        27.2553   -0.7170   -2.9211 H         1 UNK         0.0818 
     91 H91        28.3746    1.5154   -3.1654 H         1 UNK         0.0819 
     92 H92        27.2013    2.2310   -2.0709 H         1 UNK         0.0819 
     93 H93        28.3228    0.9969   -1.4886 H         1 UNK         0.0819 
     94 H94        25.7756    0.6332   -0.8509 H         1 UNK         0.3041 
     95 H95        24.6904   -0.9601    0.6185 H         1 UNK         0.0784 
     96 H96        23.1172    0.6875   -0.4554 H         1 UNK         0.0793 
     97 H97        22.2732   -0.6209   -1.2733 H         1 UNK         0.0793 
     98 H98        22.2056   -0.4850    0.4833 H         1 UNK         0.0793 
     99 H99        23.8220   -3.1251   -1.0588 H         1 UNK         0.3024 
    100 H100       23.8360   -5.3904    1.6090 H         1 UNK         0.1171 
    101 H101       21.5906   -4.8796   -0.4267 H         1 UNK         0.0786 
    102 H102       21.9411   -6.4220    0.3546 H         1 UNK         0.0786 
    103 H103       21.3804   -5.0594    1.3095 H         1 UNK         0.0786 
    104 H104       23.8389   -5.4246   -1.3276 H         1 UNK         0.2977 
    105 H105       24.9806    1.8566   -8.4145 H         1 UNK         0.3127 
    106 H106       26.2218    4.4043   -7.8230 H         1 UNK         0.0770 
    107 H107       25.1656    5.0693   -9.9744 H         1 UNK         0.0814 
    108 H108       24.0132    4.2439   -8.9409 H         1 UNK         0.0814 
    109 H109       24.7381    3.3973  -10.3086 H         1 UNK         0.0814 
    110 H110       28.3020    3.0181   -7.6337 H         1 UNK         0.2983 
    111 H111       30.4214    2.7043   -8.1335 H         1 UNK         0.0947 
    112 H112       31.5835    4.2251   -9.6913 H         1 UNK         0.0806 
    113 H113       30.3796    5.1201   -8.7834 H         1 UNK         0.0806 
    114 H114       30.0649    4.6640  -10.4574 H         1 UNK         0.0806 
    115 H115       28.2864    1.1160   -9.6754 H         1 UNK         0.3000 
    116 H116       29.2232    0.2736  -12.1338 H         1 UNK         0.0850 
    117 H117       26.9462   -0.2044  -11.2185 H         1 UNK         0.0810 
    118 H118       27.6344   -1.3841  -10.0995 H         1 UNK         0.0810 
    119 H119       27.7061   -1.6623  -11.8296 H         1 UNK         0.0810 
    120 H120       30.5247   -0.6866   -9.0449 H         1 UNK         0.3040 
    121 H121       32.0834   -2.9389  -10.1733 H         1 UNK         0.0766 
    122 H122       31.9029   -1.8877   -7.3038 H         1 UNK         0.0812 
    123 H123       32.7165   -3.3517   -7.8272 H         1 UNK         0.0812 
    124 H124       30.9725   -3.2342   -7.9549 H         1 UNK         0.0812 
    125 H125       32.4332    0.1540  -10.6768 H         1 UNK         0.3205 
    126 H126       34.0209    1.5589  -11.2252 H         1 UNK         0.0754 
    127 H127       36.3230    0.8515  -11.7071 H         1 UNK         0.0769 
    128 H128       35.2053   -0.3555  -12.3209 H         1 UNK         0.0769 
    129 H129       36.1030   -0.6546  -10.8331 H         1 UNK         0.0769 
    130 H130       32.9854    1.8054   -8.7997 H         1 UNK         0.2981 
    131 H131       34.9736    2.0219   -6.7145 H         1 UNK         0.0541 
    132 H132       34.3754    4.2086   -9.2989 H         1 UNK         0.3459 
    133 H133       35.0054    5.6257   -8.4978 H         1 UNK         0.3459 
    134 H134       32.1055    3.0621   -6.6588 H         1 UNK         0.0612 
    135 H135       33.1549    2.8337   -5.2840 H         1 UNK         0.0612 
    136 H136       30.1173    1.6180   -5.8815 H         1 UNK         0.0624 
    137 H137       30.9008    1.4861   -4.3230 H         1 UNK         0.0624 
@<TRIPOS>BOND
     1    1    2 1    
     2    1   72 1    
     3    1   73 1    
     4    1   74 1    
     5    2    3 2    
     6    2    4 am   BACKBONE|DICT|INTERRES
     7    4    5 1    
     8    4   75 1    
     9    5    6 1    
    10    5   35 1    
    11    5   76 1    
    12    6    7 1    
    13    6   77 1    
    14    6   78 1    
    15    7    8 1    
    16    8    9 1    
    17    8   79 1    
    18    8   80 1    
    19    9   10 ar   
    20    9   14 ar   
    21   10   11 ar   
    22   10   81 1    
    23   11   12 ar   
    24   11   71 1    
    25   12   13 ar   
    26   12   82 1    
    27   13   14 ar   
    28   13   15 1    
    29   14   83 1    
    30   15   16 1    
    31   15   84 1    
    32   15   85 1    
    33   16   17 1    
    34   17   18 1    
    35   17   86 1    
    36   17   87 1    
    37   18   19 1    
    38   18   37 1    
    39   18   88 1    
    40   19   20 am   BACKBONE|DICT|INTERRES
    41   19   89 1    
    42   20   21 2    
    43   20   22 1    
    44   22   23 1    
    45   22   24 1    
    46   22   90 1    
    47   23   91 1    
    48   23   92 1    
    49   23   93 1    
    50   24   25 am   BACKBONE|DICT|INTERRES
    51   24   94 1    
    52   25   26 2    
    53   25   27 1    
    54   27   28 1    
    55   27   29 1    
    56   27   95 1    
    57   28   96 1    
    58   28   97 1    
    59   28   98 1    
    60   29   30 am   BACKBONE|DICT|INTERRES
    61   29   99 1    
    62   30   31 2    
    63   30   32 1    
    64   32   33 1    
    65   32   34 1    
    66   32  100 1    
    67   33  101 1    
    68   33  102 1    
    69   33  103 1    
    70   34   35 am   BACKBONE|DICT|INTERRES
    71   34  104 1    
    72   35   36 2    
    73   37   38 2    
    74   37   39 am   BACKBONE|DICT|INTERRES
    75   39   40 1    
    76   39  105 1    
    77   40   41 1    
    78   40   42 1    
    79   40  106 1    
    80   41  107 1    
    81   41  108 1    
    82   41  109 1    
    83   42   43 2    
    84   42   44 am   BACKBONE|DICT|INTERRES
    85   44   45 1    
    86   44  110 1    
    87   45   46 1    
    88   45   47 1    
    89   45  111 1    
    90   46  112 1    
    91   46  113 1    
    92   46  114 1    
    93   47   48 2    
    94   47   49 am   BACKBONE|DICT|INTERRES
    95   49   50 1    
    96   49  115 1    
    97   50   51 1    
    98   50   52 1    
    99   50  116 1    
   100   51  117 1    
   101   51  118 1    
   102   51  119 1    
   103   52   53 2    
   104   52   54 am   BACKBONE|DICT|INTERRES
   105   54   55 1    
   106   54  120 1    
   107   55   56 1    
   108   55   57 1    
   109   55  121 1    
   110   56  122 1    
   111   56  123 1    
   112   56  124 1    
   113   57   58 2    
   114   57   59 am   BACKBONE|DICT|INTERRES
   115   59   60 1    
   116   59  125 1    
   117   60   61 1    
   118   60   62 1    
   119   60  126 1    
   120   61  127 1    
   121   61  128 1    
   122   61  129 1    
   123   62   63 2    
   124   62   64 am   BACKBONE|DICT|INTERRES
   125   64   65 1    
   126   64  130 1    
   127   65   66 1    
   128   65   69 1    
   129   65  131 1    
   130   66   67 am   BACKBONE|DICT|INTERRES
   131   66   68 2    
   132   67  132 1    
   133   67  133 1    
   134   69   70 1    
   135   69  134 1    
   136   69  135 1    
   137   70   71 1    
   138   71  136 1    
   139   71  137 1    
@<TRIPOS>SUBSTRUCTURE
     1 UNK         1 GROUP             0       ****    0 ROOT    
