@<TRIPOS>MOLECULE
3R137
137   139    1
SMALL
USER_CHARGES


@<TRIPOS>ATOM
      1 CA         28.1901   -3.9055    3.6384 C.3       0 UNK        -0.2020 
      2 C          27.3782   -3.1195    2.6196 C.2       0 UNK         0.4855 
      3 O          26.2124   -2.8120    2.8715 O.2       0 UNK        -0.5197 
      4 N          27.9876   -2.7840    1.4761 N.am      1 UNK        -0.4892 
      5 CA         27.3463   -2.0743    0.3629 C.3       1 UNK         0.0835 
      6 C6         28.3881   -1.4884   -0.6229 C.3       12 UNK        -0.0855 
      7 S7         29.4731   -0.2614    0.1838 S.3       12 UNK        -0.2931 
      8 C8         31.1346   -0.8523   -0.2841 C.3       12 UNK         0.0378 
      9 C9         31.3971   -0.7068   -1.7780 C.ar      12 UNK        -0.0802 
     10 C10        31.7315   -1.8218   -2.5531 C.ar      12 UNK        -0.0944 
     11 C11        31.9657   -1.6859   -3.9252 C.ar      12 UNK        -0.0787 
     12 C12        31.8340   -0.4313   -4.5278 C.ar      12 UNK        -0.0862 
     13 C13        31.4954    0.6898   -3.7648 C.ar      12 UNK        -0.0733 
     14 C14        31.3081    0.5489   -2.3861 C.ar      12 UNK        -0.0832 
     15 C15        31.2948    2.0410   -4.4426 C.3       12 UNK         0.0240 
     16 S16        29.7127    2.8417   -3.9981 S.3       12 UNK        -0.2522 
     17 C17        28.5032    1.5230   -4.3571 C.3       12 UNK        -0.0967 
     18 CA         28.0609    1.5226   -5.8430 C.3       5 UNK         0.0660 
     19 N          28.0619    0.1682   -6.4025 N.am      5 UNK        -0.4015 
     20 C          27.7722   -0.1590   -7.6688 C.2       4 UNK         0.4946 
     21 O          27.5709    0.6725   -8.5561 O.2       4 UNK        -0.5353 
     22 CA         27.6092   -1.6567   -7.9921 C.3       4 UNK         0.0277 
     23 CB         28.8475   -2.1722   -8.7373 C.3       4 UNK        -0.1981 
     24 N          27.3498   -2.5398   -6.8438 N.am      4 UNK        -0.4209 
     25 C          26.3750   -2.4166   -5.9300 C.2       3 UNK         0.4942 
     26 O          25.5969   -1.4595   -5.8838 O.2       3 UNK        -0.5208 
     27 CA         26.2687   -3.5370   -4.8829 C.3       3 UNK         0.0250 
     28 CB         27.6376   -4.0964   -4.4408 C.3       3 UNK        -0.1990 
     29 N          25.5532   -3.0451   -3.7085 N.am      3 UNK        -0.4232 
     30 C          24.7313   -3.7685   -2.9405 C.2       2 UNK         0.4993 
     31 O          24.4255   -4.9402   -3.1732 O.2       2 UNK        -0.5286 
     32 CA         24.1985   -3.0573   -1.6797 C.3       2 UNK         0.0209 
     33 CB         23.3587   -3.9844   -0.7739 C.3       2 UNK        -0.1931 
     34 N          25.2703   -2.4093   -0.9041 N.am      2 UNK        -0.4546 
     35 C          26.3583   -2.9987   -0.3792 C.2       1 UNK         0.5154 
     36 O          26.6151   -4.2014   -0.4827 O.2       1 UNK        -0.5181 
     37 C          26.7116    2.2550   -6.0220 C.2       5 UNK         0.5014 
     38 O          26.7091    3.4794   -6.1470 O.2       5 UNK        -0.5248 
     39 N          25.5980    1.5066   -6.0988 N.am      6 UNK        -0.4434 
     40 CA         24.2650    2.0241   -6.4285 C.3       6 UNK         0.0363 
     41 CB         23.2311    0.9003   -6.2563 C.3       6 UNK        -0.1936 
     42 C          24.1672    2.6318   -7.8433 C.2       6 UNK         0.5081 
     43 O          23.3226    3.4992   -8.0659 O.2       6 UNK        -0.5248 
     44 N          25.0394    2.1903   -8.7599 N.am      7 UNK        -0.4718 
     45 CA         25.2097    2.7389  -10.1074 C.3       7 UNK         0.0273 
     46 CB         25.2726    1.5663  -11.1029 C.3       7 UNK        -0.1935 
     47 C          26.4752    3.6145  -10.2127 C.2       7 UNK         0.5018 
     48 O          26.8198    4.0300  -11.3198 O.2       7 UNK        -0.5186 
     49 N          27.1527    3.8609   -9.0783 N.am      8 UNK        -0.4240 
     50 CA         28.4403    4.5499   -8.9259 C.3       8 UNK         0.0235 
     51 CB         28.3013    6.0497   -9.2639 C.3       8 UNK        -0.2000 
     52 C          29.5943    3.8636   -9.6869 C.2       8 UNK         0.4941 
     53 O          30.4916    4.5501  -10.1809 O.2       8 UNK        -0.5273 
     54 N          29.5512    2.5282   -9.7741 N.am      9 UNK        -0.4262 
     55 CA         30.5220    1.6981  -10.4837 C.3       9 UNK         0.0264 
     56 CB         29.7556    0.8350  -11.5019 C.3       9 UNK        -0.1955 
     57 C          31.3095    0.8201   -9.4998 C.2       9 UNK         0.5031 
     58 O          30.9189    0.6737   -8.3389 O.2       9 UNK        -0.5390 
     59 N          32.4070    0.2346   -9.9942 N.am      10 UNK        -0.4204 
     60 CA         33.1858   -0.7840   -9.2892 C.3       10 UNK         0.0237 
     61 CB         34.6005   -0.8443   -9.8884 C.3       10 UNK        -0.1985 
     62 C          32.4946   -2.1524   -9.3975 C.2       10 UNK         0.4970 
     63 O          31.8552   -2.4352  -10.4136 O.2       10 UNK        -0.4914 
     64 N          32.6542   -2.9788   -8.3589 N.am      11 UNK        -0.4285 
     65 CA         32.0335   -4.3110   -8.2491 C.3       11 UNK         0.1007 
     66 C          32.7122   -5.4196   -9.1063 C.2       11 UNK         0.5703 
     67 N          33.8676   -5.1802   -9.7156 N.am      11 UNK        -0.7361 
     68 O          32.1740   -6.5176   -9.2268 O.2       11 UNK        -0.4986 
     69 C69        31.8854   -4.7603   -6.7702 C.3       12 UNK        -0.0947 
     70 S70        31.0014   -3.5421   -5.7370 S.3       12 UNK        -0.2240 
     71 C71        32.3844   -2.8858   -4.7579 C.3       12 UNK         0.0194 
     72 H72        29.2069   -4.0930    3.2935 H         1 UNK         0.0906 
     73 H73        28.2472   -3.3559    4.5776 H         1 UNK         0.0906 
     74 H74        27.7160   -4.8669    3.8342 H         1 UNK         0.0906 
     75 H75        28.9404   -3.0756    1.3145 H         1 UNK         0.3140 
     76 H76        26.7742   -1.2454    0.7866 H         1 UNK         0.1085 
     77 H77        27.8937   -0.9872   -1.4575 H         1 UNK         0.0836 
     78 H78        28.9890   -2.2862   -1.0643 H         1 UNK         0.0836 
     79 H79        31.2521   -1.8881    0.0385 H         1 UNK         0.0731 
     80 H80        31.8808   -0.2737    0.2620 H         1 UNK         0.0731 
     81 H81        31.8179   -2.7948   -2.0889 H         1 UNK         0.1312 
     82 H82        31.9865   -0.3319   -5.5947 H         1 UNK         0.1406 
     83 H83        31.0460    1.4127   -1.7899 H         1 UNK         0.1631 
     84 H84        31.3315    1.9351   -5.5285 H         1 UNK         0.0717 
     85 H85        32.1171    2.7024   -4.1673 H         1 UNK         0.0717 
     86 H86        28.9285    0.5609   -4.0729 H         1 UNK         0.0934 
     87 H87        27.6576    1.6469   -3.6767 H         1 UNK         0.0934 
     88 H88        28.7938    2.0728   -6.4377 H         1 UNK         0.0739 
     89 H89        28.2210   -0.5868   -5.7537 H         1 UNK         0.3093 
     90 H90        26.7486   -1.7410   -8.6585 H         1 UNK         0.0818 
     91 H91        29.7412   -2.0964   -8.1178 H         1 UNK         0.0819 
     92 H92        28.7311   -3.2117   -9.0435 H         1 UNK         0.0819 
     93 H93        29.0350   -1.5929   -9.6406 H         1 UNK         0.0819 
     94 H94        27.9522   -3.3474   -6.7722 H         1 UNK         0.3041 
     95 H95        25.6924   -4.3399   -5.3475 H         1 UNK         0.0784 
     96 H96        28.1436   -4.6148   -5.2555 H         1 UNK         0.0793 
     97 H97        28.3004   -3.3081   -4.0807 H         1 UNK         0.0793 
     98 H98        27.5249   -4.8217   -3.6344 H         1 UNK         0.0793 
     99 H99        25.6851   -2.0651   -3.5006 H         1 UNK         0.3024 
    100 H100       23.5391   -2.2636   -2.0357 H         1 UNK         0.1171 
    101 H101       22.5041   -4.3911   -1.3161 H         1 UNK         0.0786 
    102 H102       22.9672   -3.4467    0.0896 H         1 UNK         0.0786 
    103 H103       23.9415   -4.8295   -0.4057 H         1 UNK         0.0786 
    104 H104       25.1607   -1.4130   -0.7703 H         1 UNK         0.2977 
    105 H105       25.6735    0.4968   -5.9984 H         1 UNK         0.3127 
    106 H106       24.0317    2.8179   -5.7158 H         1 UNK         0.0770 
    107 H107       23.4221    0.0702   -6.9378 H         1 UNK         0.0814 
    108 H108       22.2219    1.2627   -6.4571 H         1 UNK         0.0814 
    109 H109       23.2378    0.5060   -5.2400 H         1 UNK         0.0814 
    110 H110       25.7256    1.4919   -8.4904 H         1 UNK         0.2983 
    111 H111       24.3588    3.3700  -10.3727 H         1 UNK         0.0947 
    112 H112       25.3404    1.9256  -12.1306 H         1 UNK         0.0806 
    113 H113       24.3807    0.9429  -11.0382 H         1 UNK         0.0806 
    114 H114       26.1406    0.9307  -10.9221 H         1 UNK         0.0806 
    115 H115       26.7597    3.5068   -8.2137 H         1 UNK         0.3000 
    116 H116       28.6981    4.4762   -7.8683 H         1 UNK         0.0850 
    117 H117       29.2148    6.5929   -9.0189 H         1 UNK         0.0810 
    118 H118       27.4916    6.5100   -8.6978 H         1 UNK         0.0810 
    119 H119       28.1033    6.2091  -10.3243 H         1 UNK         0.0810 
    120 H120       28.8181    2.0162   -9.2895 H         1 UNK         0.3040 
    121 H121       31.2401    2.3182  -11.0243 H         1 UNK         0.0766 
    122 H122       29.2802    1.4574  -12.2603 H         1 UNK         0.0812 
    123 H123       28.9717    0.2480  -11.0237 H         1 UNK         0.0812 
    124 H124       30.4164    0.1401  -12.0216 H         1 UNK         0.0812 
    125 H125       32.6335    0.3749  -10.9682 H         1 UNK         0.3205 
    126 H126       33.2631   -0.5048   -8.2358 H         1 UNK         0.0754 
    127 H127       35.2203   -1.5687   -9.3584 H         1 UNK         0.0769 
    128 H128       35.1023    0.1211   -9.8169 H         1 UNK         0.0769 
    129 H129       34.5836   -1.1363  -10.9395 H         1 UNK         0.0769 
    130 H130       33.2178   -2.6876   -7.5755 H         1 UNK         0.2981 
    131 H131       31.0227   -4.2256   -8.6512 H         1 UNK         0.0541 
    132 H132       34.3152   -4.2826   -9.6303 H         1 UNK         0.3459 
    133 H133       34.2920   -5.9065  -10.2707 H         1 UNK         0.3459 
    134 H134       31.3251   -5.6953   -6.7142 H         1 UNK         0.0612 
    135 H135       32.8639   -4.9707   -6.3346 H         1 UNK         0.0612 
    136 H136       32.7768   -3.6783   -4.1187 H         1 UNK         0.0624 
    137 H137       33.1986   -2.5942   -5.4223 H         1 UNK         0.0624 
@<TRIPOS>BOND
     1    1    2 1    
     2    1   72 1    
     3    1   73 1    
     4    1   74 1    
     5    2    3 2    
     6    2    4 am   BACKBONE|DICT|INTERRES
     7    4    5 1    
     8    4   75 1    
     9    5    6 1    
    10    5   35 1    
    11    5   76 1    
    12    6    7 1    
    13    6   77 1    
    14    6   78 1    
    15    7    8 1    
    16    8    9 1    
    17    8   79 1    
    18    8   80 1    
    19    9   10 ar   
    20    9   14 ar   
    21   10   11 ar   
    22   10   81 1    
    23   11   12 ar   
    24   11   71 1    
    25   12   13 ar   
    26   12   82 1    
    27   13   14 ar   
    28   13   15 1    
    29   14   83 1    
    30   15   16 1    
    31   15   84 1    
    32   15   85 1    
    33   16   17 1    
    34   17   18 1    
    35   17   86 1    
    36   17   87 1    
    37   18   19 1    
    38   18   37 1    
    39   18   88 1    
    40   19   20 am   BACKBONE|DICT|INTERRES
    41   19   89 1    
    42   20   21 2    
    43   20   22 1    
    44   22   23 1    
    45   22   24 1    
    46   22   90 1    
    47   23   91 1    
    48   23   92 1    
    49   23   93 1    
    50   24   25 am   BACKBONE|DICT|INTERRES
    51   24   94 1    
    52   25   26 2    
    53   25   27 1    
    54   27   28 1    
    55   27   29 1    
    56   27   95 1    
    57   28   96 1    
    58   28   97 1    
    59   28   98 1    
    60   29   30 am   BACKBONE|DICT|INTERRES
    61   29   99 1    
    62   30   31 2    
    63   30   32 1    
    64   32   33 1    
    65   32   34 1    
    66   32  100 1    
    67   33  101 1    
    68   33  102 1    
    69   33  103 1    
    70   34   35 am   BACKBONE|DICT|INTERRES
    71   34  104 1    
    72   35   36 2    
    73   37   38 2    
    74   37   39 am   BACKBONE|DICT|INTERRES
    75   39   40 1    
    76   39  105 1    
    77   40   41 1    
    78   40   42 1    
    79   40  106 1    
    80   41  107 1    
    81   41  108 1    
    82   41  109 1    
    83   42   43 2    
    84   42   44 am   BACKBONE|DICT|INTERRES
    85   44   45 1    
    86   44  110 1    
    87   45   46 1    
    88   45   47 1    
    89   45  111 1    
    90   46  112 1    
    91   46  113 1    
    92   46  114 1    
    93   47   48 2    
    94   47   49 am   BACKBONE|DICT|INTERRES
    95   49   50 1    
    96   49  115 1    
    97   50   51 1    
    98   50   52 1    
    99   50  116 1    
   100   51  117 1    
   101   51  118 1    
   102   51  119 1    
   103   52   53 2    
   104   52   54 am   BACKBONE|DICT|INTERRES
   105   54   55 1    
   106   54  120 1    
   107   55   56 1    
   108   55   57 1    
   109   55  121 1    
   110   56  122 1    
   111   56  123 1    
   112   56  124 1    
   113   57   58 2    
   114   57   59 am   BACKBONE|DICT|INTERRES
   115   59   60 1    
   116   59  125 1    
   117   60   61 1    
   118   60   62 1    
   119   60  126 1    
   120   61  127 1    
   121   61  128 1    
   122   61  129 1    
   123   62   63 2    
   124   62   64 am   BACKBONE|DICT|INTERRES
   125   64   65 1    
   126   64  130 1    
   127   65   66 1    
   128   65   69 1    
   129   65  131 1    
   130   66   67 am   BACKBONE|DICT|INTERRES
   131   66   68 2    
   132   67  132 1    
   133   67  133 1    
   134   69   70 1    
   135   69  134 1    
   136   69  135 1    
   137   70   71 1    
   138   71  136 1    
   139   71  137 1    
@<TRIPOS>SUBSTRUCTURE
     1 UNK         1 GROUP             0       ****    0 ROOT    
