@<TRIPOS>MOLECULE
3R137
137   139    1
SMALL
USER_CHARGES


@<TRIPOS>ATOM
      1 CA         26.8612   -7.3761   -0.9421 C.3       0 UNK        -0.2020 
      2 C          27.3347   -5.9322   -0.8774 C.2       0 UNK         0.4855 
      3 O          26.9335   -5.1942    0.0234 O.2       0 UNK        -0.5197 
      4 N          28.1769   -5.5138   -1.8308 N.am      1 UNK        -0.4892 
      5 CA         28.7551   -4.1681   -1.9366 C.3       1 UNK         0.0835 
      6 C6         30.0761   -4.1794   -2.7617 C.3       12 UNK        -0.0855 
      7 S7         31.5393   -4.6444   -1.7700 S.3       12 UNK        -0.2931 
      8 C8         31.8742   -3.1637   -0.7406 C.3       12 UNK         0.0378 
      9 C9         31.6423   -1.8468   -1.4730 C.ar      12 UNK        -0.0802 
     10 C10        32.6072   -1.3303   -2.3431 C.ar      12 UNK        -0.0944 
     11 C11        32.3530   -0.1578   -3.0631 C.ar      12 UNK        -0.0787 
     12 C12        31.1192    0.4847   -2.9207 C.ar      12 UNK        -0.0862 
     13 C13        30.1511   -0.0090   -2.0362 C.ar      12 UNK        -0.0733 
     14 C14        30.4359   -1.1616   -1.3010 C.ar      12 UNK        -0.0832 
     15 C15        28.7646    0.6192   -1.8944 C.3       12 UNK         0.0240 
     16 S16        28.6710    2.3849   -2.3373 S.3       12 UNK        -0.2522 
     17 C17        27.0387    2.4715   -3.1457 C.3       12 UNK        -0.0967 
     18 CA         27.1618    2.3000   -4.6796 C.3       5 UNK         0.0660 
     19 N          27.4773    0.9243   -5.0780 N.am      5 UNK        -0.4015 
     20 C          28.0358    0.5942   -6.2506 C.2       4 UNK         0.4946 
     21 O          28.4163    1.4205   -7.0765 O.2       4 UNK        -0.5353 
     22 CA         28.1611   -0.8990   -6.5807 C.3       4 UNK         0.0277 
     23 CB         29.5245   -1.4317   -6.1213 C.3       4 UNK        -0.1981 
     24 N          27.0855   -1.6979   -5.9933 N.am      4 UNK        -0.4209 
     25 C          25.8196   -1.6913   -6.4351 C.2       3 UNK         0.4942 
     26 O          25.4428   -1.0269   -7.3992 O.2       3 UNK        -0.5208 
     27 CA         24.7832   -2.5238   -5.6562 C.3       3 UNK         0.0250 
     28 CB         24.6680   -3.9328   -6.2583 C.3       3 UNK        -0.1990 
     29 N          25.0569   -2.6303   -4.2207 N.am      3 UNK        -0.4232 
     30 C          25.1629   -1.5939   -3.3779 C.2       2 UNK         0.4993 
     31 O          25.0091   -0.4180   -3.7151 O.2       2 UNK        -0.5286 
     32 CA         25.5837   -1.9176   -1.9322 C.3       2 UNK         0.0209 
     33 CB         24.3495   -2.2592   -1.0830 C.3       2 UNK        -0.1931 
     34 N          26.5919   -2.9810   -1.7713 N.am      2 UNK        -0.4546 
     35 C          27.7340   -3.1285   -2.4604 C.2       1 UNK         0.5154 
     36 O          27.9979   -2.4667   -3.4621 O.2       1 UNK        -0.5181 
     37 C          25.9025    2.8023   -5.4092 C.2       5 UNK         0.5014 
     38 O          25.8585    3.9761   -5.7785 O.2       5 UNK        -0.5248 
     39 N          24.9233    1.9133   -5.6405 N.am      6 UNK        -0.4434 
     40 CA         23.7356    2.1922   -6.4531 C.3       6 UNK         0.0363 
     41 CB         22.7192    1.0489   -6.3042 C.3       6 UNK        -0.1936 
     42 C          24.0802    2.4387   -7.9342 C.2       6 UNK         0.5081 
     43 O          23.5675    3.3904   -8.5236 O.2       6 UNK        -0.5248 
     44 N          24.9564    1.5969   -8.5017 N.am      7 UNK        -0.4718 
     45 CA         25.4753    1.7334   -9.8673 C.3       7 UNK         0.0273 
     46 CB         26.1002    0.3977  -10.3021 C.3       7 UNK        -0.1935 
     47 C          26.5033    2.8693  -10.0245 C.2       7 UNK         0.5018 
     48 O          26.6614    3.3818  -11.1331 O.2       7 UNK        -0.5186 
     49 N          27.1895    3.2157   -8.9258 N.am      8 UNK        -0.4240 
     50 CA         28.3148    4.1514   -8.8143 C.3       8 UNK         0.0235 
     51 CB         27.8844    5.5905   -9.1706 C.3       8 UNK        -0.2000 
     52 C          29.5640    3.6765   -9.5863 C.2       8 UNK         0.4941 
     53 O          30.3122    4.5066  -10.1069 O.2       8 UNK        -0.5273 
     54 N          29.7697    2.3540   -9.6445 N.am      9 UNK        -0.4262 
     55 CA         30.8304    1.6602  -10.3744 C.3       9 UNK         0.0264 
     56 CB         30.6717    1.8770  -11.8961 C.3       9 UNK        -0.1955 
     57 C          30.7582    0.1606  -10.0527 C.2       9 UNK         0.5031 
     58 O          29.7342   -0.3023   -9.5483 O.2       9 UNK        -0.5390 
     59 N          31.8245   -0.5699  -10.4110 N.am      10 UNK        -0.4204 
     60 CA         31.9559   -2.0331  -10.3597 C.3       10 UNK         0.0237 
     61 CB         30.9523   -2.7085  -11.3213 C.3       10 UNK        -0.1985 
     62 C          31.9002   -2.6080   -8.9305 C.2       10 UNK         0.4970 
     63 O          31.0851   -3.4870   -8.6448 O.2       10 UNK        -0.4914 
     64 N          32.7987   -2.1169   -8.0673 N.am      11 UNK        -0.4285 
     65 CA         33.0077   -2.6159   -6.6947 C.3       11 UNK         0.1007 
     66 C          33.6010   -4.0539   -6.6054 C.2       11 UNK         0.5703 
     67 N          34.1758   -4.6071   -7.6675 N.am      11 UNK        -0.7361 
     68 O          33.5360   -4.6800   -5.5509 O.2       11 UNK        -0.4986 
     69 C69        33.8577   -1.6309   -5.8519 C.3       12 UNK        -0.0947 
     70 S70        33.1161    0.0311   -5.7324 S.3       12 UNK        -0.2240 
     71 C71        33.4100    0.4375   -3.9827 C.3       12 UNK         0.0194 
     72 H72        25.7766   -7.4110   -1.0407 H         1 UNK         0.0906 
     73 H73        27.2963   -7.9115   -1.7857 H         1 UNK         0.0906 
     74 H74        27.1373   -7.9018   -0.0285 H         1 UNK         0.0906 
     75 H75        28.4588   -6.1621   -2.5528 H         1 UNK         0.3140 
     76 H76        28.9976   -3.8358   -0.9256 H         1 UNK         0.1085 
     77 H77        30.2990   -3.2205   -3.2306 H         1 UNK         0.0836 
     78 H78        29.9929   -4.8717   -3.6010 H         1 UNK         0.0836 
     79 H79        32.9052   -3.2082   -0.3865 H         1 UNK         0.0731 
     80 H80        31.2508   -3.2108    0.1536 H         1 UNK         0.0731 
     81 H81        33.5482   -1.8484   -2.4664 H         1 UNK         0.1312 
     82 H82        30.9209    1.3681   -3.5110 H         1 UNK         0.1406 
     83 H83        29.6919   -1.5525   -0.6213 H         1 UNK         0.1631 
     84 H84        28.4048    0.5093   -0.8703 H         1 UNK         0.0717 
     85 H85        28.0828    0.0485   -2.5226 H         1 UNK         0.0717 
     86 H86        26.3540    1.7407   -2.7116 H         1 UNK         0.0934 
     87 H87        26.6224    3.4515   -2.9028 H         1 UNK         0.0934 
     88 H88        27.9807    2.9407   -5.0163 H         1 UNK         0.0739 
     89 H89        27.1513    0.1853   -4.4713 H         1 UNK         0.3093 
     90 H90        28.1021   -1.0091   -7.6648 H         1 UNK         0.0818 
     91 H91        29.6213   -2.4980   -6.3243 H         1 UNK         0.0819 
     92 H92        30.3268   -0.9233   -6.6572 H         1 UNK         0.0819 
     93 H93        29.6945   -1.2708   -5.0562 H         1 UNK         0.0819 
     94 H94        27.3188   -2.2064   -5.1421 H         1 UNK         0.3041 
     95 H95        23.8177   -2.0266   -5.7658 H         1 UNK         0.0784 
     96 H96        24.4397   -3.8835   -7.3241 H         1 UNK         0.0793 
     97 H97        25.5961   -4.4955   -6.1494 H         1 UNK         0.0793 
     98 H98        23.8695   -4.5040   -5.7843 H         1 UNK         0.0793 
     99 H99        25.2287   -3.5556   -3.8555 H         1 UNK         0.3024 
    100 H100       26.0243   -1.0050   -1.5270 H         1 UNK         0.1171 
    101 H101       24.6065   -2.3491   -0.0273 H         1 UNK         0.0786 
    102 H102       23.5893   -1.4805   -1.1638 H         1 UNK         0.0786 
    103 H103       23.8912   -3.1978   -1.3970 H         1 UNK         0.0786 
    104 H104       26.4643   -3.6107   -0.9830 H         1 UNK         0.2977 
    105 H105       25.0001    0.9856   -5.2362 H         1 UNK         0.3127 
    106 H106       23.2756    3.1030   -6.0636 H         1 UNK         0.0770 
    107 H107       23.0981    0.1124   -6.7123 H         1 UNK         0.0814 
    108 H108       21.7950    1.2817   -6.8345 H         1 UNK         0.0814 
    109 H109       22.4604    0.8794   -5.2588 H         1 UNK         0.0814 
    110 H110       25.2631    0.7798   -7.9780 H         1 UNK         0.2983 
    111 H111       24.6382    1.9537  -10.5333 H         1 UNK         0.0947 
    112 H112       26.9372    0.1178   -9.6607 H         1 UNK         0.0806 
    113 H113       26.4783    0.4545  -11.3237 H         1 UNK         0.0806 
    114 H114       25.3705   -0.4116  -10.2695 H         1 UNK         0.0806 
    115 H115       27.0277    2.6622   -8.0931 H         1 UNK         0.3000 
    116 H116       28.5982    4.1481   -7.7607 H         1 UNK         0.0850 
    117 H117       27.0032    5.8909   -8.6036 H         1 UNK         0.0810 
    118 H118       27.6548    5.6951  -10.2313 H         1 UNK         0.0810 
    119 H119       28.6767    6.3032   -8.9390 H         1 UNK         0.0810 
    120 H120       29.1593    1.7351   -9.1156 H         1 UNK         0.3040 
    121 H121       31.7948    2.0459  -10.0386 H         1 UNK         0.0766 
    122 H122       31.4192    1.3182  -12.4602 H         1 UNK         0.0812 
    123 H123       30.7903    2.9243  -12.1722 H         1 UNK         0.0812 
    124 H124       29.6905    1.5508  -12.2438 H         1 UNK         0.0812 
    125 H125       32.6157   -0.0806  -10.8069 H         1 UNK         0.3205 
    126 H126       32.9552   -2.2603  -10.7345 H         1 UNK         0.0754 
    127 H127       31.1236   -3.7846  -11.3712 H         1 UNK         0.0769 
    128 H128       31.0494   -2.3184  -12.3345 H         1 UNK         0.0769 
    129 H129       29.9198   -2.5601  -11.0029 H         1 UNK         0.0769 
    130 H130       33.4231   -1.3848   -8.3703 H         1 UNK         0.2981 
    131 H131       32.0276   -2.6817   -6.2221 H         1 UNK         0.0541 
    132 H132       34.5520   -5.5391   -7.5932 H         1 UNK         0.3459 
    133 H133       34.2430   -4.1040   -8.5369 H         1 UNK         0.3459 
    134 H134       33.9967   -2.0251   -4.8443 H         1 UNK         0.0612 
    135 H135       34.8574   -1.5275   -6.2772 H         1 UNK         0.0612 
    136 H136       34.4091    0.1111   -3.6899 H         1 UNK         0.0624 
    137 H137       33.4062    1.5232   -3.8763 H         1 UNK         0.0624 
@<TRIPOS>BOND
     1    1    2 1    
     2    1   72 1    
     3    1   73 1    
     4    1   74 1    
     5    2    3 2    
     6    2    4 am   BACKBONE|DICT|INTERRES
     7    4    5 1    
     8    4   75 1    
     9    5    6 1    
    10    5   35 1    
    11    5   76 1    
    12    6    7 1    
    13    6   77 1    
    14    6   78 1    
    15    7    8 1    
    16    8    9 1    
    17    8   79 1    
    18    8   80 1    
    19    9   10 ar   
    20    9   14 ar   
    21   10   11 ar   
    22   10   81 1    
    23   11   12 ar   
    24   11   71 1    
    25   12   13 ar   
    26   12   82 1    
    27   13   14 ar   
    28   13   15 1    
    29   14   83 1    
    30   15   16 1    
    31   15   84 1    
    32   15   85 1    
    33   16   17 1    
    34   17   18 1    
    35   17   86 1    
    36   17   87 1    
    37   18   19 1    
    38   18   37 1    
    39   18   88 1    
    40   19   20 am   BACKBONE|DICT|INTERRES
    41   19   89 1    
    42   20   21 2    
    43   20   22 1    
    44   22   23 1    
    45   22   24 1    
    46   22   90 1    
    47   23   91 1    
    48   23   92 1    
    49   23   93 1    
    50   24   25 am   BACKBONE|DICT|INTERRES
    51   24   94 1    
    52   25   26 2    
    53   25   27 1    
    54   27   28 1    
    55   27   29 1    
    56   27   95 1    
    57   28   96 1    
    58   28   97 1    
    59   28   98 1    
    60   29   30 am   BACKBONE|DICT|INTERRES
    61   29   99 1    
    62   30   31 2    
    63   30   32 1    
    64   32   33 1    
    65   32   34 1    
    66   32  100 1    
    67   33  101 1    
    68   33  102 1    
    69   33  103 1    
    70   34   35 am   BACKBONE|DICT|INTERRES
    71   34  104 1    
    72   35   36 2    
    73   37   38 2    
    74   37   39 am   BACKBONE|DICT|INTERRES
    75   39   40 1    
    76   39  105 1    
    77   40   41 1    
    78   40   42 1    
    79   40  106 1    
    80   41  107 1    
    81   41  108 1    
    82   41  109 1    
    83   42   43 2    
    84   42   44 am   BACKBONE|DICT|INTERRES
    85   44   45 1    
    86   44  110 1    
    87   45   46 1    
    88   45   47 1    
    89   45  111 1    
    90   46  112 1    
    91   46  113 1    
    92   46  114 1    
    93   47   48 2    
    94   47   49 am   BACKBONE|DICT|INTERRES
    95   49   50 1    
    96   49  115 1    
    97   50   51 1    
    98   50   52 1    
    99   50  116 1    
   100   51  117 1    
   101   51  118 1    
   102   51  119 1    
   103   52   53 2    
   104   52   54 am   BACKBONE|DICT|INTERRES
   105   54   55 1    
   106   54  120 1    
   107   55   56 1    
   108   55   57 1    
   109   55  121 1    
   110   56  122 1    
   111   56  123 1    
   112   56  124 1    
   113   57   58 2    
   114   57   59 am   BACKBONE|DICT|INTERRES
   115   59   60 1    
   116   59  125 1    
   117   60   61 1    
   118   60   62 1    
   119   60  126 1    
   120   61  127 1    
   121   61  128 1    
   122   61  129 1    
   123   62   63 2    
   124   62   64 am   BACKBONE|DICT|INTERRES
   125   64   65 1    
   126   64  130 1    
   127   65   66 1    
   128   65   69 1    
   129   65  131 1    
   130   66   67 am   BACKBONE|DICT|INTERRES
   131   66   68 2    
   132   67  132 1    
   133   67  133 1    
   134   69   70 1    
   135   69  134 1    
   136   69  135 1    
   137   70   71 1    
   138   71  136 1    
   139   71  137 1    
@<TRIPOS>SUBSTRUCTURE
     1 UNK         1 GROUP             0       ****    0 ROOT    
