@<TRIPOS>MOLECULE
3R137
137   139    1
SMALL
USER_CHARGES


@<TRIPOS>ATOM
      1 CA         23.6191   -3.3562    0.1994 C.3       0 UNK        -0.2020 
      2 C          25.0514   -2.9336   -0.0864 C.2       0 UNK         0.4855 
      3 O          25.4147   -1.7862    0.1725 O.2       0 UNK        -0.5197 
      4 N          25.8761   -3.8409   -0.6259 N.am      1 UNK        -0.4892 
      5 CA         27.2777   -3.5698   -0.9615 C.3       1 UNK         0.0835 
      6 C6         28.0706   -4.8686   -1.2417 C.3       12 UNK        -0.0855 
      7 S7         29.8084   -4.7037   -0.7109 S.3       12 UNK        -0.2931 
      8 C8         30.7086   -5.4644   -2.0954 C.3       12 UNK         0.0378 
      9 C9         30.6530   -4.6141   -3.3554 C.ar      12 UNK        -0.0802 
     10 C10        31.3985   -3.4338   -3.4408 C.ar      12 UNK        -0.0944 
     11 C11        31.3879   -2.6696   -4.6116 C.ar      12 UNK        -0.0787 
     12 C12        30.6230   -3.0988   -5.7014 C.ar      12 UNK        -0.0862 
     13 C13        29.8636   -4.2690   -5.6229 C.ar      12 UNK        -0.0733 
     14 C14        29.8840   -5.0245   -4.4482 C.ar      12 UNK        -0.0832 
     15 C15        29.0285   -4.7244   -6.8096 C.3       12 UNK         0.0240 
     16 S16        27.2794   -4.2681   -6.6106 S.3       12 UNK        -0.2522 
     17 C17        27.3813   -2.4517   -6.7331 C.3       12 UNK        -0.0967 
     18 CA         25.9819   -1.7918   -6.7824 C.3       5 UNK         0.0660 
     19 N          25.2173   -2.0658   -5.5601 N.am      5 UNK        -0.4015 
     20 C          23.8816   -2.0532   -5.4580 C.2       4 UNK         0.4946 
     21 O          23.1264   -1.8559   -6.4113 O.2       4 UNK        -0.5353 
     22 CA         23.2990   -2.1968   -4.0468 C.3       4 UNK         0.0277 
     23 CB         23.3951   -3.6483   -3.5482 C.3       4 UNK        -0.1981 
     24 N          23.9812   -1.2840   -3.1260 N.am      4 UNK        -0.4209 
     25 C          23.7007    0.0256   -3.0260 C.2       3 UNK         0.4942 
     26 O          22.7499    0.5630   -3.5940 O.2       3 UNK        -0.5208 
     27 CA         24.6317    0.8952   -2.1621 C.3       3 UNK         0.0250 
     28 CB         24.0258    1.1225   -0.7676 C.3       3 UNK        -0.1990 
     29 N          25.9779    0.3262   -2.0409 N.am      3 UNK        -0.4232 
     30 C          26.9212    0.4476   -2.9903 C.2       2 UNK         0.4993 
     31 O          26.7749    1.1365   -3.9982 O.2       2 UNK        -0.5286 
     32 CA         28.2420   -0.3300   -2.8103 C.3       2 UNK         0.0209 
     33 CB         29.3563    0.6062   -2.3161 C.3       2 UNK        -0.1931 
     34 N          28.1444   -1.4774   -1.9033 N.am      2 UNK        -0.4546 
     35 C          27.3709   -2.5493   -2.1149 C.2       1 UNK         0.5154 
     36 O          26.6867   -2.7048   -3.1306 O.2       1 UNK        -0.5181 
     37 C          26.0592   -0.2691   -7.0422 C.2       5 UNK         0.5014 
     38 O          27.1535    0.2779   -7.1919 O.2       5 UNK        -0.5248 
     39 N          24.8887    0.3852   -7.0858 N.am      6 UNK        -0.4434 
     40 CA         24.6832    1.8390   -7.0795 C.3       6 UNK         0.0363 
     41 CB         23.1730    2.1240   -7.0397 C.3       6 UNK        -0.1936 
     42 C          25.3453    2.6216   -8.2280 C.2       6 UNK         0.5081 
     43 O          25.5250    3.8330   -8.0985 O.2       6 UNK        -0.5248 
     44 N          25.7102    1.9333   -9.3187 N.am      7 UNK        -0.4718 
     45 CA         26.5124    2.4797  -10.4170 C.3       7 UNK         0.0273 
     46 CB         26.5247    1.4762  -11.5817 C.3       7 UNK        -0.1935 
     47 C          27.9533    2.8352   -9.9995 C.2       7 UNK         0.5018 
     48 O          28.5584    3.7000  -10.6331 O.2       7 UNK        -0.5186 
     49 N          28.4720    2.1613   -8.9580 N.am      8 UNK        -0.4240 
     50 CA         29.7775    2.3575   -8.3128 C.3       8 UNK         0.0235 
     51 CB         29.8327    3.7337   -7.6171 C.3       8 UNK        -0.2000 
     52 C          31.0035    2.1176   -9.2177 C.2       8 UNK         0.4941 
     53 O          32.1118    2.4985   -8.8382 O.2       8 UNK        -0.5273 
     54 N          30.8126    1.4656  -10.3745 N.am      9 UNK        -0.4262 
     55 CA         31.8449    1.2246  -11.3902 C.3       9 UNK         0.0264 
     56 CB         31.1992    0.5923  -12.6339 C.3       9 UNK        -0.1955 
     57 C          33.0227    0.3680  -10.8940 C.2       9 UNK         0.5031 
     58 O          34.1630    0.6214  -11.2844 O.2       9 UNK        -0.5390 
     59 N          32.7272   -0.6093  -10.0276 N.am      10 UNK        -0.4204 
     60 CA         33.7219   -1.4415   -9.3473 C.3       10 UNK         0.0237 
     61 CB         33.0891   -2.8053   -9.0215 C.3       10 UNK        -0.1985 
     62 C          34.2726   -0.7901   -8.0647 C.2       10 UNK         0.4970 
     63 O          35.3071   -1.2392   -7.5699 O.2       10 UNK        -0.4914 
     64 N          33.5690    0.2156   -7.5296 N.am      11 UNK        -0.4285 
     65 CA         33.8952    0.8877   -6.2642 C.3       11 UNK         0.1007 
     66 C          34.8365    2.1037   -6.4656 C.2       11 UNK         0.5703 
     67 N          34.6849    2.8677   -7.5406 N.am      11 UNK        -0.7361 
     68 O          35.7164    2.3497   -5.6440 O.2       11 UNK        -0.4986 
     69 C69        32.6206    1.3033   -5.4760 C.3       12 UNK        -0.0947 
     70 S70        31.3225    0.0226   -5.3403 S.3       12 UNK        -0.2240 
     71 C71        32.2490   -1.4177   -4.7158 C.3       12 UNK         0.0194 
     72 H72        23.4212   -4.3767   -0.1274 H         1 UNK         0.0906 
     73 H73        23.4193   -3.2972    1.2689 H         1 UNK         0.0906 
     74 H74        22.9234   -2.6920   -0.3128 H         1 UNK         0.0906 
     75 H75        25.5325   -4.7630   -0.8536 H         1 UNK         0.3140 
     76 H76        27.7021   -3.1049   -0.0678 H         1 UNK         0.1085 
     77 H77        27.6531   -5.6998   -0.6710 H         1 UNK         0.0836 
     78 H78        27.9985   -5.1654   -2.2895 H         1 UNK         0.0836 
     79 H79        30.3124   -6.4646   -2.2784 H         1 UNK         0.0731 
     80 H80        31.7510   -5.6005   -1.8033 H         1 UNK         0.0731 
     81 H81        31.9981   -3.1212   -2.5967 H         1 UNK         0.1312 
     82 H82        30.6142   -2.5155   -6.6112 H         1 UNK         0.1406 
     83 H83        29.3024   -5.9346   -4.3902 H         1 UNK         0.1631 
     84 H84        29.1007   -5.8080   -6.9137 H         1 UNK         0.0717 
     85 H85        29.4133   -4.3033   -7.7398 H         1 UNK         0.0717 
     86 H86        27.9509   -2.0700   -5.8835 H         1 UNK         0.0934 
     87 H87        27.9547   -2.2050   -7.6289 H         1 UNK         0.0934 
     88 H88        25.4455   -2.2231   -7.6305 H         1 UNK         0.0739 
     89 H89        25.7684   -2.2554   -4.7260 H         1 UNK         0.3093 
     90 H90        22.2403   -1.9316   -4.0930 H         1 UNK         0.0818 
     91 H91        22.9152   -4.3306   -4.2511 H         1 UNK         0.0819 
     92 H92        24.4265   -3.9803   -3.4308 H         1 UNK         0.0819 
     93 H93        22.8893   -3.7707   -2.5917 H         1 UNK         0.0819 
     94 H94        24.8133   -1.6372   -2.6719 H         1 UNK         0.3041 
     95 H95        24.7095    1.8706   -2.6478 H         1 UNK         0.0784 
     96 H96        23.0799    1.6607   -0.8422 H         1 UNK         0.0793 
     97 H97        23.8197    0.1853   -0.2517 H         1 UNK         0.0793 
     98 H98        24.6871    1.7169   -0.1370 H         1 UNK         0.0793 
     99 H99        26.1531   -0.2598   -1.2322 H         1 UNK         0.3024 
    100 H100       28.5264   -0.7094   -3.7950 H         1 UNK         0.1171 
    101 H101       29.1386    1.0090   -1.3263 H         1 UNK         0.0786 
    102 H102       29.4821    1.4520   -2.9939 H         1 UNK         0.0786 
    103 H103       30.3153    0.0895   -2.2690 H         1 UNK         0.0786 
    104 H104       28.6712   -1.4179   -1.0436 H         1 UNK         0.2977 
    105 H105       24.0540   -0.1828   -6.9718 H         1 UNK         0.3127 
    106 H106       25.1242    2.2124   -6.1528 H         1 UNK         0.0770 
    107 H107       22.6675    1.7389   -7.9261 H         1 UNK         0.0814 
    108 H108       22.9769    3.1961   -6.9913 H         1 UNK         0.0814 
    109 H109       22.7065    1.6731   -6.1635 H         1 UNK         0.0814 
    110 H110       25.5116    0.9437   -9.3411 H         1 UNK         0.2983 
    111 H111       26.0355    3.4010  -10.7590 H         1 UNK         0.0947 
    112 H112       25.5161    1.2775  -11.9447 H         1 UNK         0.0806 
    113 H113       26.9719    0.5243  -11.2926 H         1 UNK         0.0806 
    114 H114       27.0989    1.8637  -12.4247 H         1 UNK         0.0806 
    115 H115       27.8781    1.4761   -8.4939 H         1 UNK         0.3000 
    116 H116       29.8339    1.5966   -7.5331 H         1 UNK         0.0850 
    117 H117       30.7388    3.8410   -7.0202 H         1 UNK         0.0810 
    118 H118       28.9864    3.8688   -6.9433 H         1 UNK         0.0810 
    119 H119       29.8220    4.5513   -8.3383 H         1 UNK         0.0810 
    120 H120       29.8699    1.1919  -10.6087 H         1 UNK         0.3040 
    121 H121       32.2508    2.1975  -11.6757 H         1 UNK         0.0766 
    122 H122       31.9414    0.4244  -13.4157 H         1 UNK         0.0812 
    123 H123       30.7405   -0.3712  -12.4081 H         1 UNK         0.0812 
    124 H124       30.4303    1.2406  -13.0549 H         1 UNK         0.0812 
    125 H125       31.7588   -0.7553   -9.7818 H         1 UNK         0.3205 
    126 H126       34.5678   -1.6120  -10.0170 H         1 UNK         0.0754 
    127 H127       33.8092   -3.4648   -8.5347 H         1 UNK         0.0769 
    128 H128       32.2355   -2.7059   -8.3511 H         1 UNK         0.0769 
    129 H129       32.7496   -3.3112   -9.9255 H         1 UNK         0.0769 
    130 H130       32.7879    0.6030   -8.0388 H         1 UNK         0.2981 
    131 H131       34.4445    0.1873   -5.6329 H         1 UNK         0.0541 
    132 H132       33.8987    2.7127   -8.1654 H         1 UNK         0.3459 
    133 H133       35.2958    3.6557   -7.6820 H         1 UNK         0.3459 
    134 H134       32.1553    2.1720   -5.9441 H         1 UNK         0.0612 
    135 H135       32.8911    1.6156   -4.4659 H         1 UNK         0.0612 
    136 H136       32.6827   -1.1602   -3.7484 H         1 UNK         0.0624 
    137 H137       33.0780   -1.6471   -5.3839 H         1 UNK         0.0624 
@<TRIPOS>BOND
     1    1    2 1    
     2    1   72 1    
     3    1   73 1    
     4    1   74 1    
     5    2    3 2    
     6    2    4 am   BACKBONE|DICT|INTERRES
     7    4    5 1    
     8    4   75 1    
     9    5    6 1    
    10    5   35 1    
    11    5   76 1    
    12    6    7 1    
    13    6   77 1    
    14    6   78 1    
    15    7    8 1    
    16    8    9 1    
    17    8   79 1    
    18    8   80 1    
    19    9   10 ar   
    20    9   14 ar   
    21   10   11 ar   
    22   10   81 1    
    23   11   12 ar   
    24   11   71 1    
    25   12   13 ar   
    26   12   82 1    
    27   13   14 ar   
    28   13   15 1    
    29   14   83 1    
    30   15   16 1    
    31   15   84 1    
    32   15   85 1    
    33   16   17 1    
    34   17   18 1    
    35   17   86 1    
    36   17   87 1    
    37   18   19 1    
    38   18   37 1    
    39   18   88 1    
    40   19   20 am   BACKBONE|DICT|INTERRES
    41   19   89 1    
    42   20   21 2    
    43   20   22 1    
    44   22   23 1    
    45   22   24 1    
    46   22   90 1    
    47   23   91 1    
    48   23   92 1    
    49   23   93 1    
    50   24   25 am   BACKBONE|DICT|INTERRES
    51   24   94 1    
    52   25   26 2    
    53   25   27 1    
    54   27   28 1    
    55   27   29 1    
    56   27   95 1    
    57   28   96 1    
    58   28   97 1    
    59   28   98 1    
    60   29   30 am   BACKBONE|DICT|INTERRES
    61   29   99 1    
    62   30   31 2    
    63   30   32 1    
    64   32   33 1    
    65   32   34 1    
    66   32  100 1    
    67   33  101 1    
    68   33  102 1    
    69   33  103 1    
    70   34   35 am   BACKBONE|DICT|INTERRES
    71   34  104 1    
    72   35   36 2    
    73   37   38 2    
    74   37   39 am   BACKBONE|DICT|INTERRES
    75   39   40 1    
    76   39  105 1    
    77   40   41 1    
    78   40   42 1    
    79   40  106 1    
    80   41  107 1    
    81   41  108 1    
    82   41  109 1    
    83   42   43 2    
    84   42   44 am   BACKBONE|DICT|INTERRES
    85   44   45 1    
    86   44  110 1    
    87   45   46 1    
    88   45   47 1    
    89   45  111 1    
    90   46  112 1    
    91   46  113 1    
    92   46  114 1    
    93   47   48 2    
    94   47   49 am   BACKBONE|DICT|INTERRES
    95   49   50 1    
    96   49  115 1    
    97   50   51 1    
    98   50   52 1    
    99   50  116 1    
   100   51  117 1    
   101   51  118 1    
   102   51  119 1    
   103   52   53 2    
   104   52   54 am   BACKBONE|DICT|INTERRES
   105   54   55 1    
   106   54  120 1    
   107   55   56 1    
   108   55   57 1    
   109   55  121 1    
   110   56  122 1    
   111   56  123 1    
   112   56  124 1    
   113   57   58 2    
   114   57   59 am   BACKBONE|DICT|INTERRES
   115   59   60 1    
   116   59  125 1    
   117   60   61 1    
   118   60   62 1    
   119   60  126 1    
   120   61  127 1    
   121   61  128 1    
   122   61  129 1    
   123   62   63 2    
   124   62   64 am   BACKBONE|DICT|INTERRES
   125   64   65 1    
   126   64  130 1    
   127   65   66 1    
   128   65   69 1    
   129   65  131 1    
   130   66   67 am   BACKBONE|DICT|INTERRES
   131   66   68 2    
   132   67  132 1    
   133   67  133 1    
   134   69   70 1    
   135   69  134 1    
   136   69  135 1    
   137   70   71 1    
   138   71  136 1    
   139   71  137 1    
@<TRIPOS>SUBSTRUCTURE
     1 UNK         1 GROUP             0       ****    0 ROOT    
