@<TRIPOS>MOLECULE
3R137
137   139    1
SMALL
USER_CHARGES


@<TRIPOS>ATOM
      1 CA         31.2475    0.4549   -2.4194 C.3       0 UNK        -0.2020 
      2 C          30.1515   -0.5920   -2.5405 C.2       0 UNK         0.4855 
      3 O          29.4430   -0.6143   -3.5449 O.2       0 UNK        -0.5197 
      4 N          30.0140   -1.4607   -1.5302 N.am      1 UNK        -0.4892 
      5 CA         29.0081   -2.5275   -1.4787 C.3       1 UNK         0.0835 
      6 C6         29.2804   -3.5497   -0.3419 C.3       12 UNK        -0.0855 
      7 S7         30.9935   -4.1806   -0.2801 S.3       12 UNK        -0.2931 
      8 C8         30.9018   -5.6666   -1.3307 C.3       12 UNK         0.0378 
      9 C9         30.8203   -5.3065   -2.8068 C.ar      12 UNK        -0.0802 
     10 C10        31.8971   -4.6652   -3.4273 C.ar      12 UNK        -0.0944 
     11 C11        31.8280   -4.3044   -4.7749 C.ar      12 UNK        -0.0787 
     12 C12        30.6784   -4.6055   -5.5089 C.ar      12 UNK        -0.0862 
     13 C13        29.5918   -5.2408   -4.8992 C.ar      12 UNK        -0.0733 
     14 C14        29.6720   -5.6002   -3.5498 C.ar      12 UNK        -0.0832 
     15 C15        28.3229   -5.5155   -5.6954 C.3       12 UNK         0.0240 
     16 S16        26.9566   -4.4151   -5.2011 S.3       12 UNK        -0.2522 
     17 C17        27.6242   -2.7654   -5.6054 C.3       12 UNK        -0.0967 
     18 CA         26.8408   -2.0340   -6.7217 C.3       5 UNK         0.0660 
     19 N          25.4153   -1.8765   -6.4286 N.am      5 UNK        -0.4015 
     20 C          24.4797   -1.5782   -7.3418 C.2       4 UNK         0.4946 
     21 O          24.7051   -1.4875   -8.5488 O.2       4 UNK        -0.5353 
     22 CA         23.0501   -1.3217   -6.8298 C.3       4 UNK         0.0277 
     23 CB         22.2319   -2.6228   -6.8523 C.3       4 UNK        -0.1981 
     24 N          23.0077   -0.7455   -5.4833 N.am      4 UNK        -0.4209 
     25 C          23.4401    0.4838   -5.1656 C.2       3 UNK         0.4942 
     26 O          23.8738    1.2911   -5.9859 O.2       3 UNK        -0.5208 
     27 CA         23.4526    0.8454   -3.6682 C.3       3 UNK         0.0250 
     28 CB         22.0831    1.3879   -3.2301 C.3       3 UNK        -0.1990 
     29 N          23.8455   -0.2728   -2.7985 N.am      3 UNK        -0.4232 
     30 C          25.0058   -0.9359   -2.9026 C.2       2 UNK         0.4993 
     31 O          25.8614   -0.6653   -3.7471 O.2       2 UNK        -0.5286 
     32 CA         25.2028   -2.1444   -1.9715 C.3       2 UNK         0.0209 
     33 CB         24.3193   -3.3199   -2.4252 C.3       2 UNK        -0.1931 
     34 N          26.5989   -2.5906   -1.9542 N.am      2 UNK        -0.4546 
     35 C          27.5874   -1.9440   -1.3233 C.2       1 UNK         0.5154 
     36 O          27.4050   -0.9612   -0.5980 O.2       1 UNK        -0.5181 
     37 C          27.4639   -0.6559   -6.9948 C.2       5 UNK         0.5014 
     38 O          28.0672   -0.4662   -8.0497 O.2       5 UNK        -0.5248 
     39 N          27.2552    0.2882   -6.0647 N.am      6 UNK        -0.4434 
     40 CA         27.7519    1.6654   -6.1262 C.3       6 UNK         0.0363 
     41 CB         27.3604    2.4030   -4.8368 C.3       6 UNK        -0.1936 
     42 C          27.2721    2.4408   -7.3658 C.2       6 UNK         0.5081 
     43 O          28.0355    3.2349   -7.9153 O.2       6 UNK        -0.5248 
     44 N          26.0318    2.1780   -7.8020 N.am      7 UNK        -0.4718 
     45 CA         25.4555    2.7047   -9.0407 C.3       7 UNK         0.0273 
     46 CB         23.9458    2.4166   -9.0614 C.3       7 UNK        -0.1935 
     47 C          26.1205    2.1525  -10.3151 C.2       7 UNK         0.5018 
     48 O          26.1236    2.8501  -11.3305 O.2       7 UNK        -0.5186 
     49 N          26.6600    0.9262  -10.2544 N.am      8 UNK        -0.4240 
     50 CA         27.3910    0.2971  -11.3544 C.3       8 UNK         0.0235 
     51 CB         27.2981   -1.2347  -11.2489 C.3       8 UNK        -0.2000 
     52 C          28.8517    0.7699  -11.3915 C.2       8 UNK         0.4941 
     53 O          29.3289    1.1486  -12.4625 O.2       8 UNK        -0.5273 
     54 N          29.5283    0.7656  -10.2351 N.am      9 UNK        -0.4262 
     55 CA         30.8957    1.2543  -10.0729 C.3       9 UNK         0.0264 
     56 CB         31.9080    0.2089  -10.5799 C.3       9 UNK        -0.1955 
     57 C          31.1505    1.5763   -8.5984 C.2       9 UNK         0.5031 
     58 O          30.8660    0.7444   -7.7358 O.2       9 UNK        -0.5390 
     59 N          31.7377    2.7484   -8.3292 N.am      10 UNK        -0.4204 
     60 CA         32.1412    3.1924   -6.9928 C.3       10 UNK         0.0237 
     61 CB         32.2304    4.7300   -6.9805 C.3       10 UNK        -0.1985 
     62 C          33.4576    2.5160   -6.5633 C.2       10 UNK         0.4970 
     63 O          34.4974    3.1729   -6.4895 O.2       10 UNK        -0.4914 
     64 N          33.3880    1.2029   -6.3226 N.am      11 UNK        -0.4285 
     65 CA         34.5100    0.3312   -5.9394 C.3       11 UNK         0.1007 
     66 C          35.0877    0.5465   -4.5069 C.2       11 UNK         0.5703 
     67 N          34.5178    1.4102   -3.6749 N.am      11 UNK        -0.7361 
     68 O          36.0880   -0.0718   -4.1502 O.2       11 UNK        -0.4986 
     69 C69        34.1838   -1.1579   -6.2345 C.3       12 UNK        -0.0947 
     70 S70        32.7099   -1.7684   -5.3500 S.3       12 UNK        -0.2240 
     71 C71        32.9807   -3.5626   -5.4312 C.3       12 UNK         0.0194 
     72 H72        31.8680    0.4415   -3.3143 H         1 UNK         0.0906 
     73 H73        30.8093    1.4477   -2.3226 H         1 UNK         0.0906 
     74 H74        31.8914    0.2765   -1.5583 H         1 UNK         0.0906 
     75 H75        30.6204   -1.3993   -0.7253 H         1 UNK         0.3140 
     76 H76        29.0550   -3.0511   -2.4358 H         1 UNK         0.1085 
     77 H77        28.5943   -4.3954   -0.4194 H         1 UNK         0.0836 
     78 H78        29.0789   -3.0938    0.6299 H         1 UNK         0.0836 
     79 H79        31.7958   -6.2694   -1.1643 H         1 UNK         0.0731 
     80 H80        30.0561   -6.2839   -1.0238 H         1 UNK         0.0731 
     81 H81        32.7804   -4.4244   -2.8513 H         1 UNK         0.1312 
     82 H82        30.6210   -4.3163   -6.5495 H         1 UNK         0.1406 
     83 H83        28.8305   -6.0890   -3.0774 H         1 UNK         0.1631 
     84 H84        28.0167   -6.5512   -5.5421 H         1 UNK         0.0717 
     85 H85        28.5017   -5.4042   -6.7661 H         1 UNK         0.0717 
     86 H86        27.6374   -2.1832   -4.6850 H         1 UNK         0.0934 
     87 H87        28.6702   -2.8487   -5.8993 H         1 UNK         0.0934 
     88 H88        26.9334   -2.6264   -7.6349 H         1 UNK         0.0739 
     89 H89        25.1700   -1.8616   -5.4488 H         1 UNK         0.3093 
     90 H90        22.5812   -0.6100   -7.5129 H         1 UNK         0.0818 
     91 H91        21.1935   -2.4446   -6.5723 H         1 UNK         0.0819 
     92 H92        22.2250   -3.0606   -7.8517 H         1 UNK         0.0819 
     93 H93        22.6413   -3.3712   -6.1723 H         1 UNK         0.0819 
     94 H94        22.6593   -1.3365   -4.7429 H         1 UNK         0.3041 
     95 H95        24.1916    1.6378   -3.5326 H         1 UNK         0.0784 
     96 H96        21.7808    2.2307   -3.8537 H         1 UNK         0.0793 
     97 H97        21.3024    0.6299   -3.3061 H         1 UNK         0.0793 
     98 H98        22.1078    1.7434   -2.1998 H         1 UNK         0.0793 
     99 H99        23.1818   -0.5512   -2.0896 H         1 UNK         0.3024 
    100 H100       24.9157   -1.8496   -0.9593 H         1 UNK         0.1171 
    101 H101       24.5421   -3.6243   -3.4486 H         1 UNK         0.0786 
    102 H102       23.2609   -3.0599   -2.3861 H         1 UNK         0.0786 
    103 H103       24.4568   -4.1894   -1.7819 H         1 UNK         0.0786 
    104 H104       26.8255   -3.3707   -2.5541 H         1 UNK         0.2977 
    105 H105       26.7601    0.0215   -5.2145 H         1 UNK         0.3127 
    106 H106       28.8412    1.6119   -6.1713 H         1 UNK         0.0770 
    107 H107       26.2775    2.4696   -4.7261 H         1 UNK         0.0814 
    108 H108       27.7551    3.4197   -4.8332 H         1 UNK         0.0814 
    109 H109       27.7568    1.8954   -3.9567 H         1 UNK         0.0814 
    110 H110       25.4330    1.5832   -7.2366 H         1 UNK         0.2983 
    111 H111       25.5977    3.7876   -9.0424 H         1 UNK         0.0947 
    112 H112       23.4848    2.8028   -9.9715 H         1 UNK         0.0806 
    113 H113       23.4408    2.8884   -8.2183 H         1 UNK         0.0806 
    114 H114       23.7407    1.3461   -9.0183 H         1 UNK         0.0806 
    115 H115       26.6685    0.4365   -9.3670 H         1 UNK         0.3000 
    116 H116       26.9220    0.5876  -12.2973 H         1 UNK         0.0850 
    117 H117       27.7756   -1.7107  -12.1062 H         1 UNK         0.0810 
    118 H118       26.2600   -1.5672  -11.2281 H         1 UNK         0.0810 
    119 H119       27.7869   -1.6177  -10.3535 H         1 UNK         0.0810 
    120 H120       29.0785    0.4245   -9.3843 H         1 UNK         0.3040 
    121 H121       31.0091    2.1713  -10.6553 H         1 UNK         0.0766 
    122 H122       32.9326    0.5527  -10.4323 H         1 UNK         0.0812 
    123 H123       31.7835    0.0129  -11.6448 H         1 UNK         0.0812 
    124 H124       31.8019   -0.7388  -10.0501 H         1 UNK         0.0812 
    125 H125       31.9783    3.3603   -9.0960 H         1 UNK         0.3205 
    126 H126       31.3707    2.9014   -6.2748 H         1 UNK         0.0754 
    127 H127       32.5178    5.0962   -5.9940 H         1 UNK         0.0769 
    128 H128       31.2690    5.1828   -7.2247 H         1 UNK         0.0769 
    129 H129       32.9672    5.1011   -7.6942 H         1 UNK         0.0769 
    130 H130       32.4945    0.7409   -6.4609 H         1 UNK         0.2981 
    131 H131       35.3344    0.5974   -6.6034 H         1 UNK         0.0541 
    132 H132       33.7188    1.9475   -3.9662 H         1 UNK         0.3459 
    133 H133       34.9129    1.5437   -2.7579 H         1 UNK         0.3459 
    134 H134       34.0071   -1.2884   -7.3033 H         1 UNK         0.0612 
    135 H135       35.0387   -1.7932   -5.9960 H         1 UNK         0.0612 
    136 H136       33.9222   -3.8117   -4.9394 H         1 UNK         0.0624 
    137 H137       33.0801   -3.8686   -6.4738 H         1 UNK         0.0624 
@<TRIPOS>BOND
     1    1    2 1    
     2    1   72 1    
     3    1   73 1    
     4    1   74 1    
     5    2    3 2    
     6    2    4 am   BACKBONE|DICT|INTERRES
     7    4    5 1    
     8    4   75 1    
     9    5    6 1    
    10    5   35 1    
    11    5   76 1    
    12    6    7 1    
    13    6   77 1    
    14    6   78 1    
    15    7    8 1    
    16    8    9 1    
    17    8   79 1    
    18    8   80 1    
    19    9   10 ar   
    20    9   14 ar   
    21   10   11 ar   
    22   10   81 1    
    23   11   12 ar   
    24   11   71 1    
    25   12   13 ar   
    26   12   82 1    
    27   13   14 ar   
    28   13   15 1    
    29   14   83 1    
    30   15   16 1    
    31   15   84 1    
    32   15   85 1    
    33   16   17 1    
    34   17   18 1    
    35   17   86 1    
    36   17   87 1    
    37   18   19 1    
    38   18   37 1    
    39   18   88 1    
    40   19   20 am   BACKBONE|DICT|INTERRES
    41   19   89 1    
    42   20   21 2    
    43   20   22 1    
    44   22   23 1    
    45   22   24 1    
    46   22   90 1    
    47   23   91 1    
    48   23   92 1    
    49   23   93 1    
    50   24   25 am   BACKBONE|DICT|INTERRES
    51   24   94 1    
    52   25   26 2    
    53   25   27 1    
    54   27   28 1    
    55   27   29 1    
    56   27   95 1    
    57   28   96 1    
    58   28   97 1    
    59   28   98 1    
    60   29   30 am   BACKBONE|DICT|INTERRES
    61   29   99 1    
    62   30   31 2    
    63   30   32 1    
    64   32   33 1    
    65   32   34 1    
    66   32  100 1    
    67   33  101 1    
    68   33  102 1    
    69   33  103 1    
    70   34   35 am   BACKBONE|DICT|INTERRES
    71   34  104 1    
    72   35   36 2    
    73   37   38 2    
    74   37   39 am   BACKBONE|DICT|INTERRES
    75   39   40 1    
    76   39  105 1    
    77   40   41 1    
    78   40   42 1    
    79   40  106 1    
    80   41  107 1    
    81   41  108 1    
    82   41  109 1    
    83   42   43 2    
    84   42   44 am   BACKBONE|DICT|INTERRES
    85   44   45 1    
    86   44  110 1    
    87   45   46 1    
    88   45   47 1    
    89   45  111 1    
    90   46  112 1    
    91   46  113 1    
    92   46  114 1    
    93   47   48 2    
    94   47   49 am   BACKBONE|DICT|INTERRES
    95   49   50 1    
    96   49  115 1    
    97   50   51 1    
    98   50   52 1    
    99   50  116 1    
   100   51  117 1    
   101   51  118 1    
   102   51  119 1    
   103   52   53 2    
   104   52   54 am   BACKBONE|DICT|INTERRES
   105   54   55 1    
   106   54  120 1    
   107   55   56 1    
   108   55   57 1    
   109   55  121 1    
   110   56  122 1    
   111   56  123 1    
   112   56  124 1    
   113   57   58 2    
   114   57   59 am   BACKBONE|DICT|INTERRES
   115   59   60 1    
   116   59  125 1    
   117   60   61 1    
   118   60   62 1    
   119   60  126 1    
   120   61  127 1    
   121   61  128 1    
   122   61  129 1    
   123   62   63 2    
   124   62   64 am   BACKBONE|DICT|INTERRES
   125   64   65 1    
   126   64  130 1    
   127   65   66 1    
   128   65   69 1    
   129   65  131 1    
   130   66   67 am   BACKBONE|DICT|INTERRES
   131   66   68 2    
   132   67  132 1    
   133   67  133 1    
   134   69   70 1    
   135   69  134 1    
   136   69  135 1    
   137   70   71 1    
   138   71  136 1    
   139   71  137 1    
@<TRIPOS>SUBSTRUCTURE
     1 UNK         1 GROUP             0       ****    0 ROOT    
