@<TRIPOS>MOLECULE
3R137
137   139    1
SMALL
USER_CHARGES


@<TRIPOS>ATOM
      1 CA         26.0889   -5.5518   -6.8769 C.3       0 UNK        -0.2020 
      2 C          25.7872   -5.2704   -5.4130 C.2       0 UNK         0.4855 
      3 O          24.6576   -4.9152   -5.0756 O.2       0 UNK        -0.5197 
      4 N          26.7952   -5.4114   -4.5441 N.am      1 UNK        -0.4892 
      5 CA         26.7538   -5.1430   -3.1019 C.3       1 UNK         0.0835 
      6 C6         28.0669   -5.5622   -2.3787 C.3       12 UNK        -0.0855 
      7 S7         29.5983   -5.3754   -3.3665 S.3       12 UNK        -0.2931 
      8 C8         30.7753   -4.7046   -2.1531 C.3       12 UNK         0.0378 
      9 C9         30.7840   -3.1837   -2.1432 C.ar      12 UNK        -0.0802 
     10 C10        31.3672   -2.4876   -3.2054 C.ar      12 UNK        -0.0944 
     11 C11        31.4433   -1.0934   -3.1840 C.ar      12 UNK        -0.0787 
     12 C12        30.9567   -0.3966   -2.0753 C.ar      12 UNK        -0.0862 
     13 C13        30.3141   -1.0738   -1.0323 C.ar      12 UNK        -0.0733 
     14 C14        30.2404   -2.4712   -1.0696 C.ar      12 UNK        -0.0832 
     15 C15        29.6956   -0.3132    0.1403 C.3       12 UNK         0.0240 
     16 S16        28.7321    1.1667   -0.3429 S.3       12 UNK        -0.2522 
     17 C17        27.5837    0.5059   -1.5990 C.3       12 UNK        -0.0967 
     18 CA         27.9869    0.9534   -3.0310 C.3       5 UNK         0.0660 
     19 N          27.8712   -0.1397   -4.0022 N.am      5 UNK        -0.4015 
     20 C          28.3515   -0.1096   -5.2537 C.2       4 UNK         0.4946 
     21 O          29.0040    0.8249   -5.7161 O.2       4 UNK        -0.5353 
     22 CA         27.9649   -1.2788   -6.1734 C.3       4 UNK         0.0277 
     23 CB         28.8899   -2.4897   -5.9729 C.3       4 UNK        -0.1981 
     24 N          26.5670   -1.6684   -5.9786 N.am      4 UNK        -0.4209 
     25 C          25.5266   -0.8912   -6.3145 C.2       3 UNK         0.4942 
     26 O          25.6463    0.1865   -6.8956 O.2       3 UNK        -0.5208 
     27 CA         24.1289   -1.3623   -5.8827 C.3       3 UNK         0.0250 
     28 CB         23.5124   -2.2944   -6.9367 C.3       3 UNK        -0.1990 
     29 N          24.1474   -2.0163   -4.5706 N.am      3 UNK        -0.4232 
     30 C          24.3586   -1.3572   -3.4198 C.2       2 UNK         0.4993 
     31 O          24.5047   -0.1382   -3.3541 O.2       2 UNK        -0.5286 
     32 CA         24.4855   -2.1864   -2.1302 C.3       2 UNK         0.0209 
     33 CB         23.1103   -2.3683   -1.4691 C.3       2 UNK        -0.1931 
     34 N          25.1072   -3.4963   -2.3382 N.am      2 UNK        -0.4546 
     35 C          26.3464   -3.6841   -2.8130 C.2       1 UNK         0.5154 
     36 O          27.1155   -2.7598   -3.0801 O.2       1 UNK        -0.5181 
     37 C          27.2620    2.2419   -3.4819 C.2       5 UNK         0.5014 
     38 O          27.7730    3.3386   -3.2508 O.2       5 UNK        -0.5248 
     39 N          26.1233    2.0913   -4.1730 N.am      6 UNK        -0.4434 
     40 CA         25.3856    3.1639   -4.8495 C.3       6 UNK         0.0363 
     41 CB         23.9291    2.7153   -5.0594 C.3       6 UNK        -0.1936 
     42 C          26.0197    3.6229   -6.1824 C.2       6 UNK         0.5081 
     43 O          25.4383    4.4806   -6.8481 O.2       6 UNK        -0.5248 
     44 N          27.1850    3.0679   -6.5486 N.am      7 UNK        -0.4718 
     45 CA         28.0036    3.3825   -7.7235 C.3       7 UNK         0.0273 
     46 CB         28.4528    4.8603   -7.7229 C.3       7 UNK        -0.1935 
     47 C          27.3885    2.9341   -9.0621 C.2       7 UNK         0.5018 
     48 O          27.6783    3.5424  -10.0942 O.2       7 UNK        -0.5186 
     49 N          26.6007    1.8467   -9.0506 N.am      8 UNK        -0.4240 
     50 CA         26.1606    1.1513  -10.2685 C.3       8 UNK         0.0235 
     51 CB         24.8976    0.3255   -9.9721 C.3       8 UNK        -0.2000 
     52 C          27.2638    0.2536  -10.8671 C.2       8 UNK         0.4941 
     53 O          27.1141   -0.2037  -12.0009 O.2       8 UNK        -0.5273 
     54 N          28.3418    0.0205  -10.1079 N.am      9 UNK        -0.4262 
     55 CA         29.5600   -0.6701  -10.5184 C.3       9 UNK         0.0264 
     56 CB         29.6491   -2.0178   -9.7817 C.3       9 UNK        -0.1955 
     57 C          30.7592    0.2229  -10.1694 C.2       9 UNK         0.5031 
     58 O          30.6305    1.1262   -9.3385 O.2       9 UNK        -0.5390 
     59 N          31.9071   -0.0559  -10.7996 N.am      10 UNK        -0.4204 
     60 CA         33.1503    0.7127  -10.6589 C.3       10 UNK         0.0237 
     61 CB         34.0923    0.3488  -11.8196 C.3       10 UNK        -0.1985 
     62 C          33.8745    0.5386   -9.3086 C.2       10 UNK         0.4970 
     63 O          34.7490    1.3502   -9.0009 O.2       10 UNK        -0.4914 
     64 N          33.5188   -0.5017   -8.5419 N.am      11 UNK        -0.4285 
     65 CA         34.1535   -0.8976   -7.2741 C.3       11 UNK         0.1007 
     66 C          35.5924   -1.4715   -7.4615 C.2       11 UNK         0.5703 
     67 N          36.3607   -1.6157   -6.3904 N.am      11 UNK        -0.7361 
     68 O          36.0065   -1.8331   -8.5622 O.2       11 UNK        -0.4986 
     69 C69        34.0435    0.2116   -6.1803 C.3       12 UNK        -0.0947 
     70 S70        33.8023   -0.4718   -4.5061 S.3       12 UNK        -0.2240 
     71 C71        31.9957   -0.3427   -4.3847 C.3       12 UNK         0.0194 
     72 H72        26.1059   -4.6222   -7.4448 H         1 UNK         0.0906 
     73 H73        27.0521   -6.0455   -7.0047 H         1 UNK         0.0906 
     74 H74        25.3206   -6.1977   -7.3012 H         1 UNK         0.0906 
     75 H75        27.7126   -5.6727   -4.8806 H         1 UNK         0.3140 
     76 H76        25.9622   -5.7784   -2.6984 H         1 UNK         0.1085 
     77 H77        27.9995   -6.6193   -2.1167 H         1 UNK         0.0836 
     78 H78        28.1720   -5.0413   -1.4247 H         1 UNK         0.0836 
     79 H79        31.7747   -5.0580   -2.4114 H         1 UNK         0.0731 
     80 H80        30.5641   -5.1070   -1.1612 H         1 UNK         0.0731 
     81 H81        31.7591   -3.0330   -4.0531 H         1 UNK         0.1312 
     82 H82        31.0334    0.6813   -2.0465 H         1 UNK         0.1406 
     83 H83        29.7677   -3.0071   -0.2579 H         1 UNK         0.1631 
     84 H84        30.4934   -0.0055    0.8171 H         1 UNK         0.0717 
     85 H85        29.0400   -0.9690    0.7155 H         1 UNK         0.0717 
     86 H86        27.5837   -0.5821   -1.5166 H         1 UNK         0.0934 
     87 H87        26.5644    0.8087   -1.3502 H         1 UNK         0.0934 
     88 H88        29.0443    1.2164   -3.0339 H         1 UNK         0.0739 
     89 H89        27.4216   -0.9941   -3.6816 H         1 UNK         0.3093 
     90 H90        28.0736   -0.9381   -7.2049 H         1 UNK         0.0818 
     91 H91        28.8788   -2.8487   -4.9443 H         1 UNK         0.0819 
     92 H92        28.6080   -3.3193   -6.6210 H         1 UNK         0.0819 
     93 H93        29.9222   -2.2326   -6.2095 H         1 UNK         0.0819 
     94 H94        26.3959   -2.5040   -5.4385 H         1 UNK         0.3041 
     95 H95        23.4903   -0.4799   -5.8085 H         1 UNK         0.0784 
     96 H96        24.1159   -3.1867   -7.0981 H         1 UNK         0.0793 
     97 H97        22.5123   -2.6154   -6.6453 H         1 UNK         0.0793 
     98 H98        23.4212   -1.7863   -7.8975 H         1 UNK         0.0793 
     99 H99        24.0829   -3.0303   -4.5590 H         1 UNK         0.3024 
    100 H100       25.1232   -1.6226   -1.4457 H         1 UNK         0.1171 
    101 H101       23.1957   -2.8732   -0.5067 H         1 UNK         0.0786 
    102 H102       22.6359   -1.4031   -1.2851 H         1 UNK         0.0786 
    103 H103       22.4334   -2.9499   -2.0962 H         1 UNK         0.0786 
    104 H104       24.5183   -4.3028   -2.1852 H         1 UNK         0.2977 
    105 H105       25.7150    1.1630   -4.2313 H         1 UNK         0.3127 
    106 H106       25.3747    4.0338   -4.1898 H         1 UNK         0.0770 
    107 H107       23.8621    1.8905   -5.7680 H         1 UNK         0.0814 
    108 H108       23.3208    3.5303   -5.4533 H         1 UNK         0.0814 
    109 H109       23.4711    2.3942   -4.1237 H         1 UNK         0.0814 
    110 H110       27.5719    2.3422   -5.9550 H         1 UNK         0.2983 
    111 H111       28.9076    2.7808   -7.6138 H         1 UNK         0.0947 
    112 H112       29.2060    5.0389   -8.4914 H         1 UNK         0.0806 
    113 H113       28.8963    5.1400   -6.7674 H         1 UNK         0.0806 
    114 H114       27.6227    5.5386   -7.9214 H         1 UNK         0.0806 
    115 H115       26.3629    1.4035   -8.1646 H         1 UNK         0.3000 
    116 H116       25.9011    1.8992  -11.0208 H         1 UNK         0.0850 
    117 H117       24.4522   -0.0437  -10.8966 H         1 UNK         0.0810 
    118 H118       24.1402    0.9188   -9.4594 H         1 UNK         0.0810 
    119 H119       25.1208   -0.5451   -9.3556 H         1 UNK         0.0810 
    120 H120       28.4219    0.5181   -9.2315 H         1 UNK         0.3040 
    121 H121       29.5549   -0.8410  -11.5972 H         1 UNK         0.0766 
    122 H122       28.7543   -2.6190   -9.9449 H         1 UNK         0.0812 
    123 H123       30.4991   -2.6033  -10.1337 H         1 UNK         0.0812 
    124 H124       29.7701   -1.8829   -8.7072 H         1 UNK         0.0812 
    125 H125       31.9252   -0.8220  -11.4585 H         1 UNK         0.3205 
    126 H126       32.8988    1.7719  -10.7477 H         1 UNK         0.0754 
    127 H127       34.3764   -0.7041  -11.7938 H         1 UNK         0.0769 
    128 H128       35.0120    0.9342  -11.7759 H         1 UNK         0.0769 
    129 H129       33.6301    0.5507  -12.7862 H         1 UNK         0.0769 
    130 H130       32.8164   -1.1324   -8.8959 H         1 UNK         0.2981 
    131 H131       33.5575   -1.7516   -6.9503 H         1 UNK         0.0541 
    132 H132       36.0205   -1.3415   -5.4807 H         1 UNK         0.3459 
    133 H133       37.2863   -2.0013   -6.4920 H         1 UNK         0.3459 
    134 H134       34.9249    0.8555   -6.1801 H         1 UNK         0.0612 
    135 H135       33.2051    0.8769   -6.3943 H         1 UNK         0.0612 
    136 H136       31.5466   -0.7444   -5.2935 H         1 UNK         0.0624 
    137 H137       31.7121    0.7104   -4.3452 H         1 UNK         0.0624 
@<TRIPOS>BOND
     1    1    2 1    
     2    1   72 1    
     3    1   73 1    
     4    1   74 1    
     5    2    3 2    
     6    2    4 am   BACKBONE|DICT|INTERRES
     7    4    5 1    
     8    4   75 1    
     9    5    6 1    
    10    5   35 1    
    11    5   76 1    
    12    6    7 1    
    13    6   77 1    
    14    6   78 1    
    15    7    8 1    
    16    8    9 1    
    17    8   79 1    
    18    8   80 1    
    19    9   10 ar   
    20    9   14 ar   
    21   10   11 ar   
    22   10   81 1    
    23   11   12 ar   
    24   11   71 1    
    25   12   13 ar   
    26   12   82 1    
    27   13   14 ar   
    28   13   15 1    
    29   14   83 1    
    30   15   16 1    
    31   15   84 1    
    32   15   85 1    
    33   16   17 1    
    34   17   18 1    
    35   17   86 1    
    36   17   87 1    
    37   18   19 1    
    38   18   37 1    
    39   18   88 1    
    40   19   20 am   BACKBONE|DICT|INTERRES
    41   19   89 1    
    42   20   21 2    
    43   20   22 1    
    44   22   23 1    
    45   22   24 1    
    46   22   90 1    
    47   23   91 1    
    48   23   92 1    
    49   23   93 1    
    50   24   25 am   BACKBONE|DICT|INTERRES
    51   24   94 1    
    52   25   26 2    
    53   25   27 1    
    54   27   28 1    
    55   27   29 1    
    56   27   95 1    
    57   28   96 1    
    58   28   97 1    
    59   28   98 1    
    60   29   30 am   BACKBONE|DICT|INTERRES
    61   29   99 1    
    62   30   31 2    
    63   30   32 1    
    64   32   33 1    
    65   32   34 1    
    66   32  100 1    
    67   33  101 1    
    68   33  102 1    
    69   33  103 1    
    70   34   35 am   BACKBONE|DICT|INTERRES
    71   34  104 1    
    72   35   36 2    
    73   37   38 2    
    74   37   39 am   BACKBONE|DICT|INTERRES
    75   39   40 1    
    76   39  105 1    
    77   40   41 1    
    78   40   42 1    
    79   40  106 1    
    80   41  107 1    
    81   41  108 1    
    82   41  109 1    
    83   42   43 2    
    84   42   44 am   BACKBONE|DICT|INTERRES
    85   44   45 1    
    86   44  110 1    
    87   45   46 1    
    88   45   47 1    
    89   45  111 1    
    90   46  112 1    
    91   46  113 1    
    92   46  114 1    
    93   47   48 2    
    94   47   49 am   BACKBONE|DICT|INTERRES
    95   49   50 1    
    96   49  115 1    
    97   50   51 1    
    98   50   52 1    
    99   50  116 1    
   100   51  117 1    
   101   51  118 1    
   102   51  119 1    
   103   52   53 2    
   104   52   54 am   BACKBONE|DICT|INTERRES
   105   54   55 1    
   106   54  120 1    
   107   55   56 1    
   108   55   57 1    
   109   55  121 1    
   110   56  122 1    
   111   56  123 1    
   112   56  124 1    
   113   57   58 2    
   114   57   59 am   BACKBONE|DICT|INTERRES
   115   59   60 1    
   116   59  125 1    
   117   60   61 1    
   118   60   62 1    
   119   60  126 1    
   120   61  127 1    
   121   61  128 1    
   122   61  129 1    
   123   62   63 2    
   124   62   64 am   BACKBONE|DICT|INTERRES
   125   64   65 1    
   126   64  130 1    
   127   65   66 1    
   128   65   69 1    
   129   65  131 1    
   130   66   67 am   BACKBONE|DICT|INTERRES
   131   66   68 2    
   132   67  132 1    
   133   67  133 1    
   134   69   70 1    
   135   69  134 1    
   136   69  135 1    
   137   70   71 1    
   138   71  136 1    
   139   71  137 1    
@<TRIPOS>SUBSTRUCTURE
     1 UNK         1 GROUP             0       ****    0 ROOT    
