@<TRIPOS>MOLECULE
3R137
137   139    1
SMALL
USER_CHARGES


@<TRIPOS>ATOM
      1 CA         29.1608   -0.3569    3.1556 C.3       0 UNK        -0.2020 
      2 C          29.0012   -0.0274    1.6790 C.2       0 UNK         0.4855 
      3 O          29.1878    1.1241    1.2857 O.2       0 UNK        -0.5197 
      4 N          28.6599   -1.0304    0.8593 N.am      1 UNK        -0.4892 
      5 CA         28.4634   -0.9042   -0.5921 C.3       1 UNK         0.0835 
      6 C6         28.3837   -2.2904   -1.2810 C.3       12 UNK        -0.0855 
      7 S7         29.9368   -3.2260   -1.1075 S.3       12 UNK        -0.2931 
      8 C8         29.5936   -4.6975   -2.1339 C.3       12 UNK         0.0378 
      9 C9         29.8789   -4.5315   -3.6282 C.ar      12 UNK        -0.0802 
     10 C10        30.9402   -3.7452   -4.0943 C.ar      12 UNK        -0.0944 
     11 C11        31.2377   -3.6756   -5.4597 C.ar      12 UNK        -0.0787 
     12 C12        30.4762   -4.4221   -6.3658 C.ar      12 UNK        -0.0862 
     13 C13        29.4306   -5.2365   -5.9161 C.ar      12 UNK        -0.0733 
     14 C14        29.1273   -5.2684   -4.5504 C.ar      12 UNK        -0.0832 
     15 C15        28.7021   -6.1740   -6.8774 C.3       12 UNK         0.0240 
     16 S16        27.9508   -5.3429   -8.3137 S.3       12 UNK        -0.2522 
     17 C17        26.5609   -4.4502   -7.5402 C.3       12 UNK        -0.0967 
     18 CA         26.3428   -3.0384   -8.1392 C.3       5 UNK         0.0660 
     19 N          25.0962   -2.4425   -7.6514 N.am      5 UNK        -0.4015 
     20 C          24.5899   -1.2643   -8.0450 C.2       4 UNK         0.4946 
     21 O          25.0794   -0.5667   -8.9318 O.2       4 UNK        -0.5353 
     22 CA         23.3480   -0.7543   -7.2937 C.3       4 UNK         0.0277 
     23 CB         22.0654   -1.1845   -8.0230 C.3       4 UNK        -0.1981 
     24 N          23.2855   -1.1848   -5.8922 N.am      4 UNK        -0.4209 
     25 C          24.1853   -0.8689   -4.9504 C.2       3 UNK         0.4942 
     26 O          25.1983   -0.1949   -5.1578 O.2       3 UNK        -0.5208 
     27 CA         23.9384   -1.4651   -3.5626 C.3       3 UNK         0.0250 
     28 CB         24.5815   -2.8603   -3.4519 C.3       3 UNK        -0.1990 
     29 N          24.5099   -0.5870   -2.5477 N.am      3 UNK        -0.4232 
     30 C          24.0417   -0.4316   -1.3042 C.2       2 UNK         0.4993 
     31 O          23.0392   -1.0073   -0.8758 O.2       2 UNK        -0.5286 
     32 CA         24.8661    0.4766   -0.3708 C.3       2 UNK         0.0209 
     33 CB         24.1659    0.7438    0.9752 C.3       2 UNK        -0.1931 
     34 N          26.1770   -0.1228   -0.1113 N.am      2 UNK        -0.4546 
     35 C          27.2191   -0.0676   -0.9516 C.2       1 UNK         0.5154 
     36 O          27.2076    0.5904   -1.9918 O.2       1 UNK        -0.5181 
     37 C          27.5495   -2.1130   -7.8868 C.2       5 UNK         0.5014 
     38 O          28.2990   -1.8205   -8.8190 O.2       5 UNK        -0.5248 
     39 N          27.6862   -1.6359   -6.6426 N.am      6 UNK        -0.4434 
     40 CA         28.7557   -0.7280   -6.2384 C.3       6 UNK         0.0363 
     41 CB         28.8101   -0.6356   -4.7115 C.3       6 UNK        -0.1936 
     42 C          28.6238    0.6621   -6.8699 C.2       6 UNK         0.5081 
     43 O          29.6393    1.2449   -7.2470 O.2       6 UNK        -0.5248 
     44 N          27.3830    1.1484   -7.0178 N.am      7 UNK        -0.4718 
     45 CA         27.0691    2.3961   -7.7183 C.3       7 UNK         0.0273 
     46 CB         25.5839    2.7411   -7.5283 C.3       7 UNK        -0.1935 
     47 C          27.4375    2.3452   -9.2122 C.2       7 UNK         0.5018 
     48 O          27.9980    3.3139   -9.7251 O.2       7 UNK        -0.5186 
     49 N          27.1455    1.2140   -9.8713 N.am      8 UNK        -0.4240 
     50 CA         27.5154    0.9428  -11.2618 C.3       8 UNK         0.0235 
     51 CB         26.7478   -0.2869  -11.7737 C.3       8 UNK        -0.2000 
     52 C          29.0304    0.7563  -11.4472 C.2       8 UNK         0.4941 
     53 O          29.5897    1.3023  -12.3992 O.2       8 UNK        -0.5273 
     54 N          29.6672   -0.0012  -10.5416 N.am      9 UNK        -0.4262 
     55 CA         31.1121   -0.2504  -10.5370 C.3       9 UNK         0.0264 
     56 CB         31.4325   -1.3908   -9.5556 C.3       9 UNK        -0.1955 
     57 C          31.9501    0.9925  -10.1909 C.2       9 UNK         0.5031 
     58 O          33.0799    1.1013  -10.6697 O.2       9 UNK        -0.5390 
     59 N          31.3953    1.8798   -9.3509 N.am      10 UNK        -0.4204 
     60 CA         32.0234    3.0634   -8.7521 C.3       10 UNK         0.0237 
     61 CB         32.3894    4.1101   -9.8262 C.3       10 UNK        -0.1985 
     62 C          33.2009    2.6966   -7.8259 C.2       10 UNK         0.4970 
     63 O          34.1827    3.4386   -7.7530 O.2       10 UNK        -0.4914 
     64 N          33.0846    1.5480   -7.1475 N.am      11 UNK        -0.4285 
     65 CA         34.0743    1.0223   -6.2004 C.3       11 UNK         0.1007 
     66 C          34.0701    1.7625   -4.8324 C.2       11 UNK         0.5703 
     67 N          35.1230    1.6014   -4.0414 N.am      11 UNK        -0.7361 
     68 O          33.1281    2.4673   -4.4727 O.2       11 UNK        -0.4986 
     69 C69        33.9581   -0.5199   -6.0598 C.3       12 UNK        -0.0947 
     70 S70        32.3291   -1.1062   -5.4857 S.3       12 UNK        -0.2240 
     71 C71        32.4354   -2.8650   -5.9432 C.3       12 UNK         0.0194 
     72 H72        28.4661    0.2365    3.7496 H         1 UNK         0.0906 
     73 H73        28.9701   -1.4097    3.3625 H         1 UNK         0.0906 
     74 H74        30.1736   -0.1255    3.4840 H         1 UNK         0.0906 
     75 H75        28.5565   -1.9639    1.2324 H         1 UNK         0.3140 
     76 H76        29.3244   -0.3693   -1.0002 H         1 UNK         0.1085 
     77 H77        27.5684   -2.8828   -0.8606 H         1 UNK         0.0836 
     78 H78        28.1624   -2.1896   -2.3434 H         1 UNK         0.0836 
     79 H79        28.5590   -5.0051   -1.9732 H         1 UNK         0.0731 
     80 H80        30.2140   -5.5160   -1.7667 H         1 UNK         0.0731 
     81 H81        31.5557   -3.1975   -3.3944 H         1 UNK         0.1312 
     82 H82        30.7216   -4.4052   -7.4190 H         1 UNK         0.1406 
     83 H83        28.3357   -5.9145   -4.1950 H         1 UNK         0.1631 
     84 H84        27.9280   -6.7425   -6.3594 H         1 UNK         0.0717 
     85 H85        29.4194   -6.9089   -7.2451 H         1 UNK         0.0717 
     86 H86        25.6665   -5.0580   -7.6868 H         1 UNK         0.0934 
     87 H87        26.7108   -4.3932   -6.4603 H         1 UNK         0.0934 
     88 H88        26.2366   -3.1418   -9.2214 H         1 UNK         0.0739 
     89 H89        24.6069   -2.9467   -6.9279 H         1 UNK         0.3093 
     90 H90        23.3906    0.3363   -7.2976 H         1 UNK         0.0818 
     91 H91        21.1797   -0.7487   -7.5604 H         1 UNK         0.0819 
     92 H92        22.0796   -0.8542   -9.0629 H         1 UNK         0.0819 
     93 H93        21.9446   -2.2686   -8.0276 H         1 UNK         0.0819 
     94 H94        22.4893   -1.7496   -5.6311 H         1 UNK         0.3041 
     95 H95        22.8599   -1.5462   -3.4093 H         1 UNK         0.0784 
     96 H96        24.1748   -3.5444   -4.1975 H         1 UNK         0.0793 
     97 H97        25.6621   -2.8189   -3.5969 H         1 UNK         0.0793 
     98 H98        24.3951   -3.3043   -2.4738 H         1 UNK         0.0793 
     99 H99        25.3334   -0.0671   -2.8380 H         1 UNK         0.3024 
    100 H100       24.9971    1.4367   -0.8760 H         1 UNK         0.1171 
    101 H101       24.7479    1.4262    1.5951 H         1 UNK         0.0786 
    102 H102       23.1878    1.2017    0.8217 H         1 UNK         0.0786 
    103 H103       24.0112   -0.1749    1.5427 H         1 UNK         0.0786 
    104 H104       26.2615   -0.6965    0.7154 H         1 UNK         0.2977 
    105 H105       26.9922   -1.8612   -5.9457 H         1 UNK         0.3127 
    106 H106       29.6959   -1.1558   -6.5873 H         1 UNK         0.0770 
    107 H107       27.8453   -0.3495   -4.2951 H         1 UNK         0.0814 
    108 H108       29.5447    0.1017   -4.3845 H         1 UNK         0.0814 
    109 H109       29.1035   -1.5917   -4.2831 H         1 UNK         0.0814 
    110 H110       26.6065    0.6175   -6.6394 H         1 UNK         0.2983 
    111 H111       27.6638    3.1885   -7.2585 H         1 UNK         0.0947 
    112 H112       25.3548    3.7162   -7.9598 H         1 UNK         0.0806 
    113 H113       25.3154    2.7809   -6.4723 H         1 UNK         0.0806 
    114 H114       24.9348    2.0127   -8.0132 H         1 UNK         0.0806 
    115 H115       26.6183    0.4890   -9.3900 H         1 UNK         0.3000 
    116 H116       27.2124    1.8035  -11.8620 H         1 UNK         0.0850 
    117 H117       25.6704   -0.1276  -11.7265 H         1 UNK         0.0810 
    118 H118       26.9772   -1.1790  -11.1895 H         1 UNK         0.0810 
    119 H119       26.9998   -0.5013  -12.8130 H         1 UNK         0.0810 
    120 H120       29.1185   -0.4856   -9.8325 H         1 UNK         0.3040 
    121 H121       31.3997   -0.5729  -11.5399 H         1 UNK         0.0766 
    122 H122       31.1440   -1.1362   -8.5355 H         1 UNK         0.0812 
    123 H123       32.5004   -1.6131   -9.5465 H         1 UNK         0.0812 
    124 H124       30.9119   -2.3088   -9.8292 H         1 UNK         0.0812 
    125 H125       30.4955    1.6375   -8.9434 H         1 UNK         0.3205 
    126 H126       31.2637    3.5083   -8.1075 H         1 UNK         0.0754 
    127 H127       33.1995    3.7665  -10.4699 H         1 UNK         0.0769 
    128 H128       31.5325    4.3421  -10.4590 H         1 UNK         0.0769 
    129 H129       32.7144    5.0441   -9.3663 H         1 UNK         0.0769 
    130 H130       32.2154    1.0366   -7.2052 H         1 UNK         0.2981 
    131 H131       35.0554    1.2188   -6.6378 H         1 UNK         0.0541 
    132 H132       35.9020    1.0251   -4.3187 H         1 UNK         0.3459 
    133 H133       35.1383    2.0676   -3.1479 H         1 UNK         0.3459 
    134 H134       34.7229   -0.9057   -5.3837 H         1 UNK         0.0612 
    135 H135       34.1623   -0.9794   -7.0283 H         1 UNK         0.0612 
    136 H136       32.5391   -2.9389   -7.0268 H         1 UNK         0.0624 
    137 H137       33.3429   -3.2908   -5.5131 H         1 UNK         0.0624 
@<TRIPOS>BOND
     1    1    2 1    
     2    1   72 1    
     3    1   73 1    
     4    1   74 1    
     5    2    3 2    
     6    2    4 am   BACKBONE|DICT|INTERRES
     7    4    5 1    
     8    4   75 1    
     9    5    6 1    
    10    5   35 1    
    11    5   76 1    
    12    6    7 1    
    13    6   77 1    
    14    6   78 1    
    15    7    8 1    
    16    8    9 1    
    17    8   79 1    
    18    8   80 1    
    19    9   10 ar   
    20    9   14 ar   
    21   10   11 ar   
    22   10   81 1    
    23   11   12 ar   
    24   11   71 1    
    25   12   13 ar   
    26   12   82 1    
    27   13   14 ar   
    28   13   15 1    
    29   14   83 1    
    30   15   16 1    
    31   15   84 1    
    32   15   85 1    
    33   16   17 1    
    34   17   18 1    
    35   17   86 1    
    36   17   87 1    
    37   18   19 1    
    38   18   37 1    
    39   18   88 1    
    40   19   20 am   BACKBONE|DICT|INTERRES
    41   19   89 1    
    42   20   21 2    
    43   20   22 1    
    44   22   23 1    
    45   22   24 1    
    46   22   90 1    
    47   23   91 1    
    48   23   92 1    
    49   23   93 1    
    50   24   25 am   BACKBONE|DICT|INTERRES
    51   24   94 1    
    52   25   26 2    
    53   25   27 1    
    54   27   28 1    
    55   27   29 1    
    56   27   95 1    
    57   28   96 1    
    58   28   97 1    
    59   28   98 1    
    60   29   30 am   BACKBONE|DICT|INTERRES
    61   29   99 1    
    62   30   31 2    
    63   30   32 1    
    64   32   33 1    
    65   32   34 1    
    66   32  100 1    
    67   33  101 1    
    68   33  102 1    
    69   33  103 1    
    70   34   35 am   BACKBONE|DICT|INTERRES
    71   34  104 1    
    72   35   36 2    
    73   37   38 2    
    74   37   39 am   BACKBONE|DICT|INTERRES
    75   39   40 1    
    76   39  105 1    
    77   40   41 1    
    78   40   42 1    
    79   40  106 1    
    80   41  107 1    
    81   41  108 1    
    82   41  109 1    
    83   42   43 2    
    84   42   44 am   BACKBONE|DICT|INTERRES
    85   44   45 1    
    86   44  110 1    
    87   45   46 1    
    88   45   47 1    
    89   45  111 1    
    90   46  112 1    
    91   46  113 1    
    92   46  114 1    
    93   47   48 2    
    94   47   49 am   BACKBONE|DICT|INTERRES
    95   49   50 1    
    96   49  115 1    
    97   50   51 1    
    98   50   52 1    
    99   50  116 1    
   100   51  117 1    
   101   51  118 1    
   102   51  119 1    
   103   52   53 2    
   104   52   54 am   BACKBONE|DICT|INTERRES
   105   54   55 1    
   106   54  120 1    
   107   55   56 1    
   108   55   57 1    
   109   55  121 1    
   110   56  122 1    
   111   56  123 1    
   112   56  124 1    
   113   57   58 2    
   114   57   59 am   BACKBONE|DICT|INTERRES
   115   59   60 1    
   116   59  125 1    
   117   60   61 1    
   118   60   62 1    
   119   60  126 1    
   120   61  127 1    
   121   61  128 1    
   122   61  129 1    
   123   62   63 2    
   124   62   64 am   BACKBONE|DICT|INTERRES
   125   64   65 1    
   126   64  130 1    
   127   65   66 1    
   128   65   69 1    
   129   65  131 1    
   130   66   67 am   BACKBONE|DICT|INTERRES
   131   66   68 2    
   132   67  132 1    
   133   67  133 1    
   134   69   70 1    
   135   69  134 1    
   136   69  135 1    
   137   70   71 1    
   138   71  136 1    
   139   71  137 1    
@<TRIPOS>SUBSTRUCTURE
     1 UNK         1 GROUP             0       ****    0 ROOT    
