@<TRIPOS>MOLECULE
3R137
137   139    1
SMALL
USER_CHARGES


@<TRIPOS>ATOM
      1 CA         28.5387   -2.8150    2.2668 C.3       0 UNK        -0.2020 
      2 C          28.6653   -2.5525    0.7737 C.2       0 UNK         0.4855 
      3 O          29.4594   -1.7053    0.3672 O.2       0 UNK        -0.5197 
      4 N          27.8775   -3.2624   -0.0443 N.am      1 UNK        -0.4892 
      5 CA         27.8857   -3.1786   -1.5128 C.3       1 UNK         0.0835 
      6 C6         27.4848   -4.5281   -2.1644 C.3       12 UNK        -0.0855 
      7 S7         28.7739   -5.8005   -1.9321 S.3       12 UNK        -0.2931 
      8 C8         29.5695   -5.8418   -3.5751 C.3       12 UNK         0.0378 
      9 C9         30.4631   -4.6309   -3.8161 C.ar      12 UNK        -0.0802 
     10 C10        31.8238   -4.6804   -3.4972 C.ar      12 UNK        -0.0944 
     11 C11        32.6462   -3.5690   -3.7142 C.ar      12 UNK        -0.0787 
     12 C12        32.0951   -2.3947   -4.2357 C.ar      12 UNK        -0.0862 
     13 C13        30.7427   -2.3417   -4.5792 C.ar      12 UNK        -0.0733 
     14 C14        29.9361   -3.4636   -4.3746 C.ar      12 UNK        -0.0832 
     15 C15        30.1407   -1.0764   -5.1640 C.3       12 UNK         0.0240 
     16 S16        29.4878   -0.0225   -3.8322 S.3       12 UNK        -0.2522 
     17 C17        28.4627    1.2353   -4.6700 C.3       12 UNK        -0.0967 
     18 CA         27.6871    0.7886   -5.9348 C.3       5 UNK         0.0660 
     19 N          26.8357   -0.3975   -5.7276 N.am      5 UNK        -0.4015 
     20 C          26.1306   -1.0128   -6.6941 C.2       4 UNK         0.4946 
     21 O          26.1185   -0.6386   -7.8661 O.2       4 UNK        -0.5353 
     22 CA         25.2538   -2.2087   -6.3028 C.3       4 UNK         0.0277 
     23 CB         26.0772   -3.5034   -6.2402 C.3       4 UNK        -0.1981 
     24 N          24.5837   -1.9732   -5.0263 N.am      4 UNK        -0.4209 
     25 C          23.3985   -1.3599   -4.8995 C.2       3 UNK         0.4942 
     26 O          22.6955   -1.0217   -5.8521 O.2       3 UNK        -0.5208 
     27 CA         22.9145   -1.0536   -3.4701 C.3       3 UNK         0.0250 
     28 CB         22.0204   -2.1907   -2.9502 C.3       3 UNK        -0.1990 
     29 N          24.0020   -0.8179   -2.5163 N.am      3 UNK        -0.4232 
     30 C          24.8757    0.1958   -2.5885 C.2       2 UNK         0.4993 
     31 O          24.8569    1.0614   -3.4651 O.2       2 UNK        -0.5286 
     32 CA         25.9941    0.2137   -1.5330 C.3       2 UNK         0.0209 
     33 CB         25.5073    0.8989   -0.2462 C.3       2 UNK        -0.1931 
     34 N          26.5738   -1.0960   -1.1986 N.am      2 UNK        -0.4546 
     35 C          27.0531   -2.0000   -2.0681 C.2       1 UNK         0.5154 
     36 O          26.8697   -1.9239   -3.2842 O.2       1 UNK        -0.5181 
     37 C          26.9161    1.9892   -6.5170 C.2       5 UNK         0.5014 
     38 O          27.5003    2.7541   -7.2830 O.2       5 UNK        -0.5248 
     39 N          25.6175    2.1010   -6.2025 N.am      6 UNK        -0.4434 
     40 CA         24.6806    3.0581   -6.7984 C.3       6 UNK         0.0363 
     41 CB         23.2956    2.8567   -6.1629 C.3       6 UNK        -0.1936 
     42 C          24.5792    2.9856   -8.3381 C.2       6 UNK         0.5081 
     43 O          24.2507    3.9983   -8.9573 O.2       6 UNK        -0.5248 
     44 N          24.8666    1.8152   -8.9260 N.am      7 UNK        -0.4718 
     45 CA         24.9290    1.5966  -10.3720 C.3       7 UNK         0.0273 
     46 CB         24.0622    0.3792  -10.7347 C.3       7 UNK        -0.1935 
     47 C          26.3750    1.3848  -10.8498 C.2       7 UNK         0.5018 
     48 O          26.7501    1.9286  -11.8890 O.2       7 UNK        -0.5186 
     49 N          27.1548    0.5886  -10.1041 N.am      8 UNK        -0.4240 
     50 CA         28.5128    0.1682  -10.4613 C.3       8 UNK         0.0235 
     51 CB         28.8877   -1.0764   -9.6383 C.3       8 UNK        -0.2000 
     52 C          29.5854    1.2565  -10.2917 C.2       8 UNK         0.4941 
     53 O          30.6506    1.1312  -10.8961 O.2       8 UNK        -0.5273 
     54 N          29.3224    2.2726   -9.4567 N.am      9 UNK        -0.4262 
     55 CA         30.1720    3.4211   -9.1034 C.3       9 UNK         0.0264 
     56 CB         30.5383    4.2582  -10.3450 C.3       9 UNK        -0.1955 
     57 C          31.4256    3.0882   -8.2700 C.2       9 UNK         0.5031 
     58 O          31.8282    3.9191   -7.4542 O.2       9 UNK        -0.5390 
     59 N          32.0203    1.9076   -8.4667 N.am      10 UNK        -0.4204 
     60 CA         33.2158    1.4259   -7.7801 C.3       10 UNK         0.0237 
     61 CB         34.4689    1.9588   -8.5034 C.3       10 UNK        -0.1985 
     62 C          33.2074   -0.1081   -7.7273 C.2       10 UNK         0.4970 
     63 O          32.3519   -0.7439   -8.3473 O.2       10 UNK        -0.4914 
     64 N          34.1733   -0.6667   -6.9879 N.am      11 UNK        -0.4285 
     65 CA         34.4187   -2.1128   -6.8528 C.3       11 UNK         0.1007 
     66 C          34.9454   -2.8058   -8.1465 C.2       11 UNK         0.5703 
     67 N          35.4870   -2.0753   -9.1148 N.am      11 UNK        -0.7361 
     68 O          34.8486   -4.0228   -8.2823 O.2       11 UNK        -0.4986 
     69 C69        35.3411   -2.3831   -5.6301 C.3       12 UNK        -0.0947 
     70 S70        35.1192   -4.0278   -4.8678 S.3       12 UNK        -0.2240 
     71 C71        34.1297   -3.6415   -3.3871 C.3       12 UNK         0.0194 
     72 H72        28.2508   -1.9013    2.7862 H         1 UNK         0.0906 
     73 H73        27.7933   -3.5793    2.4861 H         1 UNK         0.0906 
     74 H74        29.4943   -3.1490    2.6701 H         1 UNK         0.0906 
     75 H75        27.2456   -3.9467    0.3481 H         1 UNK         0.3140 
     76 H76        28.9080   -2.9553   -1.8266 H         1 UNK         0.1085 
     77 H77        27.2930   -4.4276   -3.2329 H         1 UNK         0.0836 
     78 H78        26.5497   -4.8944   -1.7373 H         1 UNK         0.0836 
     79 H79        28.8096   -5.9164   -4.3547 H         1 UNK         0.0731 
     80 H80        30.1626   -6.7547   -3.6495 H         1 UNK         0.0731 
     81 H81        32.2436   -5.5865   -3.0819 H         1 UNK         0.1312 
     82 H82        32.7207   -1.5264   -4.3888 H         1 UNK         0.1406 
     83 H83        28.8896   -3.4151   -4.6322 H         1 UNK         0.1631 
     84 H84        29.3561   -1.3614   -5.8630 H         1 UNK         0.0717 
     85 H85        30.8844   -0.5219   -5.7375 H         1 UNK         0.0717 
     86 H86        27.7683    1.6335   -3.9288 H         1 UNK         0.0934 
     87 H87        29.1286    2.0642   -4.9207 H         1 UNK         0.0934 
     88 H88        28.4190    0.5223   -6.6980 H         1 UNK         0.0739 
     89 H89        26.8271   -0.7925   -4.7901 H         1 UNK         0.3093 
     90 H90        24.5043   -2.3358   -7.0872 H         1 UNK         0.0818 
     91 H91        26.8250   -3.4696   -5.4518 H         1 UNK         0.0819 
     92 H92        25.4387   -4.3674   -6.0560 H         1 UNK         0.0819 
     93 H93        26.5998   -3.6803   -7.1813 H         1 UNK         0.0819 
     94 H94        25.1327   -2.1542   -4.1923 H         1 UNK         0.3041 
     95 H95        22.3156   -0.1414   -3.5191 H         1 UNK         0.0784 
     96 H96        21.1856   -2.3716   -3.6289 H         1 UNK         0.0793 
     97 H97        22.5716   -3.1272   -2.8550 H         1 UNK         0.0793 
     98 H98        21.5959   -1.9488   -1.9756 H         1 UNK         0.0793 
     99 H99        24.1092   -1.4862   -1.7669 H         1 UNK         0.3024 
    100 H100       26.8056    0.8156   -1.9450 H         1 UNK         0.1171 
    101 H101       26.3255    1.0467    0.4590 H         1 UNK         0.0786 
    102 H102       25.0877    1.8830   -0.4614 H         1 UNK         0.0786 
    103 H103       24.7330    0.3163    0.2544 H         1 UNK         0.0786 
    104 H104       26.7761   -1.2585   -0.2230 H         1 UNK         0.2977 
    105 H105       25.2423    1.4818   -5.4909 H         1 UNK         0.3127 
    106 H106       25.0347    4.0591   -6.5443 H         1 UNK         0.0770 
    107 H107       22.9054    1.8570   -6.3591 H         1 UNK         0.0814 
    108 H108       22.5747    3.5733   -6.5589 H         1 UNK         0.0814 
    109 H109       23.3303    2.9959   -5.0820 H         1 UNK         0.0814 
    110 H110       25.1490    1.0341   -8.3426 H         1 UNK         0.2983 
    111 H111       24.5323    2.4623  -10.9072 H         1 UNK         0.0947 
    112 H112       24.0936    0.1822  -11.8072 H         1 UNK         0.0806 
    113 H113       23.0187    0.5447  -10.4663 H         1 UNK         0.0806 
    114 H114       24.3981   -0.5251  -10.2253 H         1 UNK         0.0806 
    115 H115       26.7539    0.1519   -9.2737 H         1 UNK         0.3000 
    116 H116       28.5086   -0.1146  -11.5162 H         1 UNK         0.0850 
    117 H117       28.9196   -0.8624   -8.5702 H         1 UNK         0.0810 
    118 H118       28.1757   -1.8868   -9.7957 H         1 UNK         0.0810 
    119 H119       29.8729   -1.4506   -9.9211 H         1 UNK         0.0810 
    120 H120       28.4393    2.2562   -8.9542 H         1 UNK         0.3040 
    121 H121       29.5478    4.0506   -8.4674 H         1 UNK         0.0766 
    122 H122       29.6484    4.5510  -10.9023 H         1 UNK         0.0812 
    123 H123       31.1977    3.7172  -11.0241 H         1 UNK         0.0812 
    124 H124       31.0559    5.1737  -10.0559 H         1 UNK         0.0812 
    125 H125       31.6330    1.2775   -9.1651 H         1 UNK         0.3205 
    126 H126       33.2070    1.7892   -6.7501 H         1 UNK         0.0754 
    127 H127       35.3860    1.6487   -8.0016 H         1 UNK         0.0769 
    128 H128       34.4762    3.0487   -8.5308 H         1 UNK         0.0769 
    129 H129       34.5195    1.6011   -9.5327 H         1 UNK         0.0769 
    130 H130       34.8386   -0.0652   -6.5253 H         1 UNK         0.2981 
    131 H131       33.4475   -2.5677   -6.6522 H         1 UNK         0.0541 
    132 H132       35.5704   -1.0767   -9.0202 H         1 UNK         0.3459 
    133 H133       35.8171   -2.5329   -9.9499 H         1 UNK         0.3459 
    134 H134       36.3910   -2.2702   -5.9067 H         1 UNK         0.0612 
    135 H135       35.1715   -1.6338   -4.8559 H         1 UNK         0.0612 
    136 H136       34.3075   -4.4189   -2.6425 H         1 UNK         0.0624 
    137 H137       34.4679   -2.7093   -2.9327 H         1 UNK         0.0624 
@<TRIPOS>BOND
     1    1    2 1    
     2    1   72 1    
     3    1   73 1    
     4    1   74 1    
     5    2    3 2    
     6    2    4 am   BACKBONE|DICT|INTERRES
     7    4    5 1    
     8    4   75 1    
     9    5    6 1    
    10    5   35 1    
    11    5   76 1    
    12    6    7 1    
    13    6   77 1    
    14    6   78 1    
    15    7    8 1    
    16    8    9 1    
    17    8   79 1    
    18    8   80 1    
    19    9   10 ar   
    20    9   14 ar   
    21   10   11 ar   
    22   10   81 1    
    23   11   12 ar   
    24   11   71 1    
    25   12   13 ar   
    26   12   82 1    
    27   13   14 ar   
    28   13   15 1    
    29   14   83 1    
    30   15   16 1    
    31   15   84 1    
    32   15   85 1    
    33   16   17 1    
    34   17   18 1    
    35   17   86 1    
    36   17   87 1    
    37   18   19 1    
    38   18   37 1    
    39   18   88 1    
    40   19   20 am   BACKBONE|DICT|INTERRES
    41   19   89 1    
    42   20   21 2    
    43   20   22 1    
    44   22   23 1    
    45   22   24 1    
    46   22   90 1    
    47   23   91 1    
    48   23   92 1    
    49   23   93 1    
    50   24   25 am   BACKBONE|DICT|INTERRES
    51   24   94 1    
    52   25   26 2    
    53   25   27 1    
    54   27   28 1    
    55   27   29 1    
    56   27   95 1    
    57   28   96 1    
    58   28   97 1    
    59   28   98 1    
    60   29   30 am   BACKBONE|DICT|INTERRES
    61   29   99 1    
    62   30   31 2    
    63   30   32 1    
    64   32   33 1    
    65   32   34 1    
    66   32  100 1    
    67   33  101 1    
    68   33  102 1    
    69   33  103 1    
    70   34   35 am   BACKBONE|DICT|INTERRES
    71   34  104 1    
    72   35   36 2    
    73   37   38 2    
    74   37   39 am   BACKBONE|DICT|INTERRES
    75   39   40 1    
    76   39  105 1    
    77   40   41 1    
    78   40   42 1    
    79   40  106 1    
    80   41  107 1    
    81   41  108 1    
    82   41  109 1    
    83   42   43 2    
    84   42   44 am   BACKBONE|DICT|INTERRES
    85   44   45 1    
    86   44  110 1    
    87   45   46 1    
    88   45   47 1    
    89   45  111 1    
    90   46  112 1    
    91   46  113 1    
    92   46  114 1    
    93   47   48 2    
    94   47   49 am   BACKBONE|DICT|INTERRES
    95   49   50 1    
    96   49  115 1    
    97   50   51 1    
    98   50   52 1    
    99   50  116 1    
   100   51  117 1    
   101   51  118 1    
   102   51  119 1    
   103   52   53 2    
   104   52   54 am   BACKBONE|DICT|INTERRES
   105   54   55 1    
   106   54  120 1    
   107   55   56 1    
   108   55   57 1    
   109   55  121 1    
   110   56  122 1    
   111   56  123 1    
   112   56  124 1    
   113   57   58 2    
   114   57   59 am   BACKBONE|DICT|INTERRES
   115   59   60 1    
   116   59  125 1    
   117   60   61 1    
   118   60   62 1    
   119   60  126 1    
   120   61  127 1    
   121   61  128 1    
   122   61  129 1    
   123   62   63 2    
   124   62   64 am   BACKBONE|DICT|INTERRES
   125   64   65 1    
   126   64  130 1    
   127   65   66 1    
   128   65   69 1    
   129   65  131 1    
   130   66   67 am   BACKBONE|DICT|INTERRES
   131   66   68 2    
   132   67  132 1    
   133   67  133 1    
   134   69   70 1    
   135   69  134 1    
   136   69  135 1    
   137   70   71 1    
   138   71  136 1    
   139   71  137 1    
@<TRIPOS>SUBSTRUCTURE
     1 UNK         1 GROUP             0       ****    0 ROOT    
