@<TRIPOS>MOLECULE
3R137
137   139    1
SMALL
USER_CHARGES


@<TRIPOS>ATOM
      1 CA         28.2105    0.3066    2.3430 C.3       0 UNK        -0.2020 
      2 C          28.2825   -1.2176    2.3074 C.2       0 UNK         0.4855 
      3 O          28.2987   -1.8461    3.3637 O.2       0 UNK        -0.5197 
      4 N          28.3310   -1.8603    1.1319 N.am      1 UNK        -0.4892 
      5 CA         28.2698   -1.2695   -0.2132 C.3       1 UNK         0.0835 
      6 C6         28.8504   -2.2331   -1.2793 C.3       12 UNK        -0.0855 
      7 S7         28.0312   -3.8699   -1.3368 S.3       12 UNK        -0.2931 
      8 C8         29.4366   -4.9800   -1.6676 C.3       12 UNK         0.0378 
      9 C9         30.0517   -4.7123   -3.0336 C.ar      12 UNK        -0.0802 
     10 C10        31.2310   -3.9679   -3.1408 C.ar      12 UNK        -0.0944 
     11 C11        31.7836   -3.6933   -4.3941 C.ar      12 UNK        -0.0787 
     12 C12        31.1596   -4.1837   -5.5440 C.ar      12 UNK        -0.0862 
     13 C13        29.9802   -4.9294   -5.4505 C.ar      12 UNK        -0.0733 
     14 C14        29.4335   -5.1966   -4.1914 C.ar      12 UNK        -0.0832 
     15 C15        29.2849   -5.4172   -6.7157 C.3       12 UNK         0.0240 
     16 S16        27.7896   -4.4461   -7.1024 S.3       12 UNK        -0.2522 
     17 C17        28.4206   -2.7387   -6.9716 C.3       12 UNK        -0.0967 
     18 CA         27.6041   -1.6928   -7.7673 C.3       5 UNK         0.0660 
     19 N          26.1646   -1.8028   -7.5157 N.am      5 UNK        -0.4015 
     20 C          25.2011   -0.9730   -7.9422 C.2       4 UNK         0.4946 
     21 O          25.3988   -0.0202   -8.6977 O.2       4 UNK        -0.5353 
     22 CA         23.7869   -1.2016   -7.3783 C.3       4 UNK         0.0277 
     23 CB         22.9165   -1.9361   -8.4100 C.3       4 UNK        -0.1981 
     24 N          23.7489   -1.9274   -6.0994 N.am      4 UNK        -0.4209 
     25 C          24.3611   -1.5468   -4.9680 C.2       3 UNK         0.4942 
     26 O          25.0696   -0.5403   -4.8702 O.2       3 UNK        -0.5208 
     27 CA         24.2106   -2.4881   -3.7706 C.3       3 UNK         0.0250 
     28 CB         25.1927   -3.6695   -3.8832 C.3       3 UNK        -0.1990 
     29 N          24.4889   -1.7422   -2.5487 N.am      3 UNK        -0.4232 
     30 C          23.9261   -1.9538   -1.3555 C.2       2 UNK         0.4993 
     31 O          23.0911   -2.8348   -1.1398 O.2       2 UNK        -0.5286 
     32 CA         24.4094   -1.0473   -0.2072 C.3       2 UNK         0.0209 
     33 CB         23.5951   -1.2362    1.0868 C.3       2 UNK        -0.1931 
     34 N          25.8216   -1.2989    0.0836 N.am      2 UNK        -0.4546 
     35 C          26.8540   -0.7959   -0.6069 C.2       1 UNK         0.5154 
     36 O          26.7196    0.0084   -1.5296 O.2       1 UNK        -0.5181 
     37 C          28.1627   -0.2913   -7.4516 C.2       5 UNK         0.5014 
     38 O          29.0185    0.1936   -8.1927 O.2       5 UNK        -0.5248 
     39 N          27.6487    0.3449   -6.3863 N.am      6 UNK        -0.4434 
     40 CA         28.0269    1.6902   -5.9493 C.3       6 UNK         0.0363 
     41 CB         27.3538    1.9918   -4.6017 C.3       6 UNK        -0.1936 
     42 C          27.6997    2.7932   -6.9731 C.2       6 UNK         0.5081 
     43 O          28.3783    3.8197   -6.9792 O.2       6 UNK        -0.5248 
     44 N          26.6879    2.5634   -7.8200 N.am      7 UNK        -0.4718 
     45 CA         26.3215    3.4442   -8.9277 C.3       7 UNK         0.0273 
     46 CB         24.7889    3.5234   -9.0277 C.3       7 UNK        -0.1935 
     47 C          26.9224    2.9484  -10.2511 C.2       7 UNK         0.5018 
     48 O          27.4081    3.7652  -11.0339 O.2       7 UNK        -0.5186 
     49 N          26.8602    1.6298  -10.4880 N.am      8 UNK        -0.4240 
     50 CA         27.2631    0.9911  -11.7423 C.3       8 UNK         0.0235 
     51 CB         26.7069   -0.4415  -11.7858 C.3       8 UNK        -0.2000 
     52 C          28.7803    0.9865  -11.9913 C.2       8 UNK         0.4941 
     53 O          29.1929    1.1731  -13.1371 O.2       8 UNK        -0.5273 
     54 N          29.5745    0.7522  -10.9387 N.am      9 UNK        -0.4262 
     55 CA         31.0337    0.6201  -11.0138 C.3       9 UNK         0.0264 
     56 CB         31.4147   -0.8520  -10.7773 C.3       9 UNK        -0.1955 
     57 C          31.7702    1.5223  -10.0136 C.2       9 UNK         0.5031 
     58 O          32.9247    1.8703  -10.2678 O.2       9 UNK        -0.5390 
     59 N          31.1282    1.8426   -8.8790 N.am      10 UNK        -0.4204 
     60 CA         31.6602    2.6085   -7.7415 C.3       10 UNK         0.0237 
     61 CB         31.9314    4.0740   -8.1424 C.3       10 UNK        -0.1985 
     62 C          32.8730    1.9385   -7.0612 C.2       10 UNK         0.4970 
     63 O          33.6625    2.6245   -6.4101 O.2       10 UNK        -0.4914 
     64 N          32.9980    0.6147   -7.2365 N.am      11 UNK        -0.4285 
     65 CA         34.1178   -0.2321   -6.7930 C.3       11 UNK         0.1007 
     66 C          35.4914    0.1246   -7.4422 C.2       11 UNK         0.5703 
     67 N          35.5244    0.8186   -8.5756 N.am      11 UNK        -0.7361 
     68 O          36.5431   -0.2612   -6.9368 O.2       11 UNK        -0.4986 
     69 C69        34.1810   -0.3937   -5.2462 C.3       12 UNK        -0.0947 
     70 S70        32.6306   -1.0806   -4.5720 S.3       12 UNK        -0.2240 
     71 C71        33.0429   -2.8508   -4.5123 C.3       12 UNK         0.0194 
     72 H72        29.0517    0.7526    1.8137 H         1 UNK         0.0906 
     73 H73        27.2819    0.6668    1.9021 H         1 UNK         0.0906 
     74 H74        28.2456    0.6642    3.3720 H         1 UNK         0.0906 
     75 H75        28.3838   -2.8700    1.1383 H         1 UNK         0.3140 
     76 H76        28.8989   -0.3775   -0.2230 H         1 UNK         0.1085 
     77 H77        28.8063   -1.7871   -2.2755 H         1 UNK         0.0836 
     78 H78        29.9117   -2.3761   -1.0732 H         1 UNK         0.0836 
     79 H79        29.0899   -6.0133   -1.6204 H         1 UNK         0.0731 
     80 H80        30.1813   -4.8724   -0.8773 H         1 UNK         0.0731 
     81 H81        31.7111   -3.5846   -2.2509 H         1 UNK         0.1312 
     82 H82        31.5824   -3.9648   -6.5151 H         1 UNK         0.1406 
     83 H83        28.5130   -5.7597   -4.1143 H         1 UNK         0.1631 
     84 H84        29.0075   -6.4658   -6.5996 H         1 UNK         0.0717 
     85 H85        29.9643   -5.3742   -7.5685 H         1 UNK         0.0717 
     86 H86        28.4487   -2.4867   -5.9084 H         1 UNK         0.0934 
     87 H87        29.4566   -2.7233   -7.3159 H         1 UNK         0.0934 
     88 H88        27.7548   -1.8765   -8.8320 H         1 UNK         0.0739 
     89 H89        25.8924   -2.5701   -6.9197 H         1 UNK         0.3093 
     90 H90        23.3533   -0.2147   -7.2041 H         1 UNK         0.0818 
     91 H91        21.8813   -2.0109   -8.0766 H         1 UNK         0.0819 
     92 H92        22.9089   -1.4044   -9.3630 H         1 UNK         0.0819 
     93 H93        23.2828   -2.9452   -8.6035 H         1 UNK         0.0819 
     94 H94        23.2010   -2.7764   -6.0859 H         1 UNK         0.3041 
     95 H95        23.1838   -2.8600   -3.7499 H         1 UNK         0.0784 
     96 H96        25.1071   -4.3384   -3.0266 H         1 UNK         0.0793 
     97 H97        25.0002   -4.2640   -4.7770 H         1 UNK         0.0793 
     98 H98        26.2284   -3.3291   -3.9335 H         1 UNK         0.0793 
     99 H99        25.1567   -0.9833   -2.6541 H         1 UNK         0.3024 
    100 H100       24.2846   -0.0115   -0.5325 H         1 UNK         0.1171 
    101 H101       23.9252   -0.5489    1.8661 H         1 UNK         0.0786 
    102 H102       22.5358   -1.0423    0.9129 H         1 UNK         0.0786 
    103 H103       23.6819   -2.2513    1.4766 H         1 UNK         0.0786 
    104 H104       26.0239   -1.9857    0.7962 H         1 UNK         0.2977 
    105 H105       26.9065   -0.1030   -5.8578 H         1 UNK         0.3127 
    106 H106       29.1067    1.6913   -5.7937 H         1 UNK         0.0770 
    107 H107       26.2661    1.9868   -4.6841 H         1 UNK         0.0814 
    108 H108       27.6340    1.2590   -3.8448 H         1 UNK         0.0814 
    109 H109       27.6489    2.9729   -4.2273 H         1 UNK         0.0814 
    110 H110       26.2041    1.6740   -7.7715 H         1 UNK         0.2983 
    111 H111       26.6985    4.4537   -8.7479 H         1 UNK         0.0947 
    112 H112       24.3545    3.9284   -8.1136 H         1 UNK         0.0806 
    113 H113       24.3405    2.5450   -9.2055 H         1 UNK         0.0806 
    114 H114       24.4849    4.1759   -9.8474 H         1 UNK         0.0806 
    115 H115       26.3976    1.0340   -9.8037 H         1 UNK         0.3000 
    116 H116       26.8027    1.5522  -12.5586 H         1 UNK         0.0850 
    117 H117       26.9551   -0.9290  -12.7296 H         1 UNK         0.0810 
    118 H118       25.6205   -0.4481  -11.6933 H         1 UNK         0.0810 
    119 H119       27.1130   -1.0574  -10.9836 H         1 UNK         0.0810 
    120 H120       29.1494    0.5981  -10.0287 H         1 UNK         0.3040 
    121 H121       31.3909    0.9077  -12.0048 H         1 UNK         0.0766 
    122 H122       31.0680   -1.2092   -9.8067 H         1 UNK         0.0812 
    123 H123       32.4966   -0.9888  -10.8114 H         1 UNK         0.0812 
    124 H124       30.9838   -1.4974  -11.5428 H         1 UNK         0.0812 
    125 H125       30.2249    1.4035   -8.7088 H         1 UNK         0.3205 
    126 H126       30.8734    2.6198   -6.9888 H         1 UNK         0.0754 
    127 H127       32.1855    4.6785   -7.2709 H         1 UNK         0.0769 
    128 H128       31.0508    4.5256   -8.5999 H         1 UNK         0.0769 
    129 H129       32.7584    4.1566   -8.8481 H         1 UNK         0.0769 
    130 H130       32.2895    0.1447   -7.7782 H         1 UNK         0.2981 
    131 H131       33.8961   -1.2194   -7.1992 H         1 UNK         0.0541 
    132 H132       36.4156    1.0335   -8.9935 H         1 UNK         0.3459 
    133 H133       34.6715    1.1412   -9.0136 H         1 UNK         0.3459 
    134 H134       34.3722    0.5672   -4.7667 H         1 UNK         0.0612 
    135 H135       35.0051   -1.0461   -4.9525 H         1 UNK         0.0612 
    136 H136       33.7091   -3.0401   -3.6692 H         1 UNK         0.0624 
    137 H137       33.5929   -3.1305   -5.4123 H         1 UNK         0.0624 
@<TRIPOS>BOND
     1    1    2 1    
     2    1   72 1    
     3    1   73 1    
     4    1   74 1    
     5    2    3 2    
     6    2    4 am   BACKBONE|DICT|INTERRES
     7    4    5 1    
     8    4   75 1    
     9    5    6 1    
    10    5   35 1    
    11    5   76 1    
    12    6    7 1    
    13    6   77 1    
    14    6   78 1    
    15    7    8 1    
    16    8    9 1    
    17    8   79 1    
    18    8   80 1    
    19    9   10 ar   
    20    9   14 ar   
    21   10   11 ar   
    22   10   81 1    
    23   11   12 ar   
    24   11   71 1    
    25   12   13 ar   
    26   12   82 1    
    27   13   14 ar   
    28   13   15 1    
    29   14   83 1    
    30   15   16 1    
    31   15   84 1    
    32   15   85 1    
    33   16   17 1    
    34   17   18 1    
    35   17   86 1    
    36   17   87 1    
    37   18   19 1    
    38   18   37 1    
    39   18   88 1    
    40   19   20 am   BACKBONE|DICT|INTERRES
    41   19   89 1    
    42   20   21 2    
    43   20   22 1    
    44   22   23 1    
    45   22   24 1    
    46   22   90 1    
    47   23   91 1    
    48   23   92 1    
    49   23   93 1    
    50   24   25 am   BACKBONE|DICT|INTERRES
    51   24   94 1    
    52   25   26 2    
    53   25   27 1    
    54   27   28 1    
    55   27   29 1    
    56   27   95 1    
    57   28   96 1    
    58   28   97 1    
    59   28   98 1    
    60   29   30 am   BACKBONE|DICT|INTERRES
    61   29   99 1    
    62   30   31 2    
    63   30   32 1    
    64   32   33 1    
    65   32   34 1    
    66   32  100 1    
    67   33  101 1    
    68   33  102 1    
    69   33  103 1    
    70   34   35 am   BACKBONE|DICT|INTERRES
    71   34  104 1    
    72   35   36 2    
    73   37   38 2    
    74   37   39 am   BACKBONE|DICT|INTERRES
    75   39   40 1    
    76   39  105 1    
    77   40   41 1    
    78   40   42 1    
    79   40  106 1    
    80   41  107 1    
    81   41  108 1    
    82   41  109 1    
    83   42   43 2    
    84   42   44 am   BACKBONE|DICT|INTERRES
    85   44   45 1    
    86   44  110 1    
    87   45   46 1    
    88   45   47 1    
    89   45  111 1    
    90   46  112 1    
    91   46  113 1    
    92   46  114 1    
    93   47   48 2    
    94   47   49 am   BACKBONE|DICT|INTERRES
    95   49   50 1    
    96   49  115 1    
    97   50   51 1    
    98   50   52 1    
    99   50  116 1    
   100   51  117 1    
   101   51  118 1    
   102   51  119 1    
   103   52   53 2    
   104   52   54 am   BACKBONE|DICT|INTERRES
   105   54   55 1    
   106   54  120 1    
   107   55   56 1    
   108   55   57 1    
   109   55  121 1    
   110   56  122 1    
   111   56  123 1    
   112   56  124 1    
   113   57   58 2    
   114   57   59 am   BACKBONE|DICT|INTERRES
   115   59   60 1    
   116   59  125 1    
   117   60   61 1    
   118   60   62 1    
   119   60  126 1    
   120   61  127 1    
   121   61  128 1    
   122   61  129 1    
   123   62   63 2    
   124   62   64 am   BACKBONE|DICT|INTERRES
   125   64   65 1    
   126   64  130 1    
   127   65   66 1    
   128   65   69 1    
   129   65  131 1    
   130   66   67 am   BACKBONE|DICT|INTERRES
   131   66   68 2    
   132   67  132 1    
   133   67  133 1    
   134   69   70 1    
   135   69  134 1    
   136   69  135 1    
   137   70   71 1    
   138   71  136 1    
   139   71  137 1    
@<TRIPOS>SUBSTRUCTURE
     1 UNK         1 GROUP             0       ****    0 ROOT    
