@<TRIPOS>MOLECULE
3R137
137   139    1
SMALL
USER_CHARGES


@<TRIPOS>ATOM
      1 CA         27.6268   -6.2844   -4.8375 C.3       0 UNK        -0.2020 
      2 C          27.2447   -6.3905   -3.3703 C.2       0 UNK         0.4855 
      3 O          26.3181   -7.1266   -3.0312 O.2       0 UNK        -0.5197 
      4 N          27.9574   -5.6695   -2.4949 N.am      1 UNK        -0.4892 
      5 CA         27.7259   -5.6579   -1.0448 C.3       1 UNK         0.0835 
      6 C6         28.9925   -5.2081   -0.2686 C.3       12 UNK        -0.0855 
      7 S7         29.4978   -3.4812   -0.5942 S.3       12 UNK        -0.2931 
      8 C8         30.9088   -3.6603   -1.7359 C.3       12 UNK         0.0378 
      9 C9         30.8204   -2.6270   -2.8502 C.ar      12 UNK        -0.0802 
     10 C10        30.9217   -1.2648   -2.5499 C.ar      12 UNK        -0.0944 
     11 C11        30.7569   -0.2973   -3.5450 C.ar      12 UNK        -0.0787 
     12 C12        30.4925   -0.7086   -4.8562 C.ar      12 UNK        -0.0862 
     13 C13        30.4314   -2.0678   -5.1786 C.ar      12 UNK        -0.0733 
     14 C14        30.6014   -3.0238   -4.1729 C.ar      12 UNK        -0.0832 
     15 C15        30.1413   -2.4964   -6.6103 C.3       12 UNK         0.0240 
     16 S16        28.5492   -3.3752   -6.7919 S.3       12 UNK        -0.2522 
     17 C17        27.3821   -2.3732   -5.8026 C.3       12 UNK        -0.0967 
     18 CA         26.5770   -1.3363   -6.6183 C.3       5 UNK         0.0660 
     19 N          25.3993   -0.8926   -5.8696 N.am      5 UNK        -0.4015 
     20 C          24.4176   -0.1186   -6.3575 C.2       4 UNK         0.4946 
     21 O          24.3715    0.2640   -7.5273 O.2       4 UNK        -0.5353 
     22 CA         23.3236    0.3457   -5.3757 C.3       4 UNK         0.0277 
     23 CB         22.0652   -0.5237   -5.5284 C.3       4 UNK        -0.1981 
     24 N          23.7389    0.3485   -3.9684 N.am      4 UNK        -0.4209 
     25 C          24.7547    1.0626   -3.4603 C.2       3 UNK         0.4942 
     26 O          25.4379    1.8432   -4.1225 O.2       3 UNK        -0.5208 
     27 CA         25.1106    0.8222   -1.9821 C.3       3 UNK         0.0250 
     28 CB         24.4044    1.8538   -1.0879 C.3       3 UNK        -0.1990 
     29 N          24.8220   -0.5321   -1.4874 N.am      3 UNK        -0.4232 
     30 C          25.3115   -1.6673   -2.0064 C.2       2 UNK         0.4993 
     31 O          25.9835   -1.7190   -3.0402 O.2       2 UNK        -0.5286 
     32 CA         24.9594   -2.9676   -1.2785 C.3       2 UNK         0.0209 
     33 CB         23.6427   -3.5575   -1.8128 C.3       2 UNK        -0.1931 
     34 N          26.0485   -3.9114   -1.5015 N.am      2 UNK        -0.4546 
     35 C          26.4719   -4.8459   -0.6417 C.2       1 UNK         0.5154 
     36 O          25.9206   -5.0786    0.4358 O.2       1 UNK        -0.5181 
     37 C          27.4613   -0.1594   -7.0868 C.2       5 UNK         0.5014 
     38 O          28.0915   -0.2781   -8.1366 O.2       5 UNK        -0.5248 
     39 N          27.4535    0.9738   -6.3631 N.am      6 UNK        -0.4434 
     40 CA         28.2063    2.1879   -6.7076 C.3       6 UNK         0.0363 
     41 CB         28.0340    3.2307   -5.5930 C.3       6 UNK        -0.1936 
     42 C          27.8370    2.7982   -8.0752 C.2       6 UNK         0.5081 
     43 O          28.6560    3.5072   -8.6602 O.2       6 UNK        -0.5248 
     44 N          26.6236    2.5101   -8.5680 N.am      7 UNK        -0.4718 
     45 CA         26.1673    2.8816   -9.9079 C.3       7 UNK         0.0273 
     46 CB         24.6322    2.9662   -9.9043 C.3       7 UNK        -0.1935 
     47 C          26.6478    1.9045  -10.9983 C.2       7 UNK         0.5018 
     48 O          26.6398    2.2789  -12.1718 O.2       7 UNK        -0.5186 
     49 N          27.0339    0.6792  -10.6143 N.am      8 UNK        -0.4240 
     50 CA         27.5001   -0.3714  -11.5201 C.3       8 UNK         0.0235 
     51 CB         27.0204   -1.7429  -11.0139 C.3       8 UNK        -0.2000 
     52 C          29.0279   -0.3519  -11.6683 C.2       8 UNK         0.4941 
     53 O          29.5202   -0.5075  -12.7869 O.2       8 UNK        -0.5273 
     54 N          29.7510   -0.1542  -10.5589 N.am      9 UNK        -0.4262 
     55 CA         31.2078   -0.0528  -10.5207 C.3       9 UNK         0.0264 
     56 CB         31.8256   -1.4472  -10.3172 C.3       9 UNK        -0.1955 
     57 C          31.6042    0.8927   -9.3859 C.2       9 UNK         0.5031 
     58 O          30.9845    0.8530   -8.3228 O.2       9 UNK        -0.5390 
     59 N          32.6532    1.6958   -9.6043 N.am      10 UNK        -0.4204 
     60 CA         33.1343    2.7521   -8.7021 C.3       10 UNK         0.0237 
     61 CB         33.9894    3.7434   -9.5154 C.3       10 UNK        -0.1985 
     62 C          33.8613    2.2461   -7.4342 C.2       10 UNK         0.4970 
     63 O          34.8720    2.8278   -7.0357 O.2       10 UNK        -0.4914 
     64 N          33.3239    1.1886   -6.8171 N.am      11 UNK        -0.4285 
     65 CA         33.7150    0.6226   -5.5144 C.3       11 UNK         0.1007 
     66 C          35.1558    0.0319   -5.4443 C.2       11 UNK         0.5703 
     67 N          35.7921   -0.2839   -6.5662 N.am      11 UNK        -0.7361 
     68 O          35.6969   -0.1771   -4.3608 O.2       11 UNK        -0.4986 
     69 C69        33.3856    1.5748   -4.3255 C.3       12 UNK        -0.0947 
     70 S70        31.6799    2.2338   -4.3785 S.3       12 UNK        -0.2240 
     71 C71        30.8140    1.1808   -3.1675 C.3       12 UNK         0.0194 
     72 H72        26.8633   -5.7342   -5.3868 H         1 UNK         0.0906 
     73 H73        28.5808   -5.7760   -4.9718 H         1 UNK         0.0906 
     74 H74        27.7130   -7.2776   -5.2772 H         1 UNK         0.0906 
     75 H75        28.6932   -5.0603   -2.8210 H         1 UNK         0.3140 
     76 H76        27.5200   -6.6871   -0.7409 H         1 UNK         0.1085 
     77 H77        28.8215   -5.3077    0.8051 H         1 UNK         0.0836 
     78 H78        29.8221   -5.8821   -0.4871 H         1 UNK         0.0836 
     79 H79        31.8396   -3.5263   -1.1829 H         1 UNK         0.0731 
     80 H80        30.9383   -4.6685   -2.1512 H         1 UNK         0.0731 
     81 H81        31.0928   -0.9598   -1.5264 H         1 UNK         0.1312 
     82 H82        30.3397    0.0307   -5.6309 H         1 UNK         0.1406 
     83 H83        30.5314   -4.0735   -4.4226 H         1 UNK         0.1631 
     84 H84        30.9432   -3.1493   -6.9568 H         1 UNK         0.0717 
     85 H85        30.1495   -1.6345   -7.2779 H         1 UNK         0.0717 
     86 H86        26.6902   -3.0894   -5.3567 H         1 UNK         0.0934 
     87 H87        27.8743   -1.9008   -4.9526 H         1 UNK         0.0934 
     88 H88        26.2037   -1.8300   -7.5182 H         1 UNK         0.0739 
     89 H89        25.3869   -1.1398   -4.8843 H         1 UNK         0.3093 
     90 H90        23.0675    1.3729   -5.6437 H         1 UNK         0.0818 
     91 H91        21.2461   -0.1500   -4.9137 H         1 UNK         0.0819 
     92 H92        21.7158   -0.5260   -6.5621 H         1 UNK         0.0819 
     93 H93        22.2533   -1.5605   -5.2461 H         1 UNK         0.0819 
     94 H94        23.2391   -0.2694   -3.3460 H         1 UNK         0.3041 
     95 H95        26.1883    0.9729   -1.8889 H         1 UNK         0.0784 
     96 H96        24.6208    2.8708   -1.4190 H         1 UNK         0.0793 
     97 H97        23.3209    1.7294   -1.1047 H         1 UNK         0.0793 
     98 H98        24.7366    1.7767   -0.0524 H         1 UNK         0.0793 
     99 H99        24.2570   -0.5880   -0.6517 H         1 UNK         0.3024 
    100 H100       24.8677   -2.7600   -0.2097 H         1 UNK         0.1171 
    101 H101       22.8110   -2.8693   -1.6574 H         1 UNK         0.0786 
    102 H102       23.3916   -4.4883   -1.3038 H         1 UNK         0.0786 
    103 H103       23.7006   -3.7676   -2.8818 H         1 UNK         0.0786 
    104 H104       26.5878   -3.7359   -2.3399 H         1 UNK         0.2977 
    105 H105       26.8628    1.0317   -5.5409 H         1 UNK         0.3127 
    106 H106       29.2613    1.9154   -6.7481 H         1 UNK         0.0770 
    107 H107       27.0014    3.5734   -5.5183 H         1 UNK         0.0814 
    108 H108       28.6562    4.1065   -5.7815 H         1 UNK         0.0814 
    109 H109       28.3265    2.8299   -4.6228 H         1 UNK         0.0814 
    110 H110       26.0079    1.9149   -8.0275 H         1 UNK         0.2983 
    111 H111       26.5610    3.8695  -10.1575 H         1 UNK         0.0947 
    112 H112       24.2562    3.2811  -10.8787 H         1 UNK         0.0806 
    113 H113       24.2757    3.6899   -9.1711 H         1 UNK         0.0806 
    114 H114       24.1752    2.0026   -9.6749 H         1 UNK         0.0806 
    115 H115       27.1026    0.4739   -9.6225 H         1 UNK         0.3000 
    116 H116       27.0664   -0.2149  -12.5104 H         1 UNK         0.0850 
    117 H117       27.3085   -2.5339  -11.7075 H         1 UNK         0.0810 
    118 H118       25.9347   -1.7731  -10.9204 H         1 UNK         0.0810 
    119 H119       27.4470   -1.9945  -10.0424 H         1 UNK         0.0810 
    120 H120       29.2840   -0.0369   -9.6599 H         1 UNK         0.3040 
    121 H121       31.5684    0.3681  -11.4619 H         1 UNK         0.0766 
    122 H122       32.9136   -1.3916  -10.2657 H         1 UNK         0.0812 
    123 H123       31.5737   -2.1156  -11.1407 H         1 UNK         0.0812 
    124 H124       31.4767   -1.9100   -9.3936 H         1 UNK         0.0812 
    125 H125       33.1387    1.6170  -10.4866 H         1 UNK         0.3205 
    126 H126       32.2581    3.2977   -8.3442 H         1 UNK         0.0754 
    127 H127       34.2892    4.5977   -8.9067 H         1 UNK         0.0769 
    128 H128       33.4364    4.1400  -10.3673 H         1 UNK         0.0769 
    129 H129       34.8994    3.2749   -9.8923 H         1 UNK         0.0769 
    130 H130       32.4637    0.8233   -7.2183 H         1 UNK         0.2981 
    131 H131       33.0848   -0.2569   -5.3983 H         1 UNK         0.0541 
    132 H132       35.3598   -0.1169   -7.4603 H         1 UNK         0.3459 
    133 H133       36.7195   -0.6748   -6.5158 H         1 UNK         0.3459 
    134 H134       34.0709    2.4238   -4.3240 H         1 UNK         0.0612 
    135 H135       33.5342    1.0641   -3.3725 H         1 UNK         0.0612 
    136 H136       29.7925    1.5461   -3.0587 H         1 UNK         0.0624 
    137 H137       31.2932    1.3117   -2.1960 H         1 UNK         0.0624 
@<TRIPOS>BOND
     1    1    2 1    
     2    1   72 1    
     3    1   73 1    
     4    1   74 1    
     5    2    3 2    
     6    2    4 am   BACKBONE|DICT|INTERRES
     7    4    5 1    
     8    4   75 1    
     9    5    6 1    
    10    5   35 1    
    11    5   76 1    
    12    6    7 1    
    13    6   77 1    
    14    6   78 1    
    15    7    8 1    
    16    8    9 1    
    17    8   79 1    
    18    8   80 1    
    19    9   10 ar   
    20    9   14 ar   
    21   10   11 ar   
    22   10   81 1    
    23   11   12 ar   
    24   11   71 1    
    25   12   13 ar   
    26   12   82 1    
    27   13   14 ar   
    28   13   15 1    
    29   14   83 1    
    30   15   16 1    
    31   15   84 1    
    32   15   85 1    
    33   16   17 1    
    34   17   18 1    
    35   17   86 1    
    36   17   87 1    
    37   18   19 1    
    38   18   37 1    
    39   18   88 1    
    40   19   20 am   BACKBONE|DICT|INTERRES
    41   19   89 1    
    42   20   21 2    
    43   20   22 1    
    44   22   23 1    
    45   22   24 1    
    46   22   90 1    
    47   23   91 1    
    48   23   92 1    
    49   23   93 1    
    50   24   25 am   BACKBONE|DICT|INTERRES
    51   24   94 1    
    52   25   26 2    
    53   25   27 1    
    54   27   28 1    
    55   27   29 1    
    56   27   95 1    
    57   28   96 1    
    58   28   97 1    
    59   28   98 1    
    60   29   30 am   BACKBONE|DICT|INTERRES
    61   29   99 1    
    62   30   31 2    
    63   30   32 1    
    64   32   33 1    
    65   32   34 1    
    66   32  100 1    
    67   33  101 1    
    68   33  102 1    
    69   33  103 1    
    70   34   35 am   BACKBONE|DICT|INTERRES
    71   34  104 1    
    72   35   36 2    
    73   37   38 2    
    74   37   39 am   BACKBONE|DICT|INTERRES
    75   39   40 1    
    76   39  105 1    
    77   40   41 1    
    78   40   42 1    
    79   40  106 1    
    80   41  107 1    
    81   41  108 1    
    82   41  109 1    
    83   42   43 2    
    84   42   44 am   BACKBONE|DICT|INTERRES
    85   44   45 1    
    86   44  110 1    
    87   45   46 1    
    88   45   47 1    
    89   45  111 1    
    90   46  112 1    
    91   46  113 1    
    92   46  114 1    
    93   47   48 2    
    94   47   49 am   BACKBONE|DICT|INTERRES
    95   49   50 1    
    96   49  115 1    
    97   50   51 1    
    98   50   52 1    
    99   50  116 1    
   100   51  117 1    
   101   51  118 1    
   102   51  119 1    
   103   52   53 2    
   104   52   54 am   BACKBONE|DICT|INTERRES
   105   54   55 1    
   106   54  120 1    
   107   55   56 1    
   108   55   57 1    
   109   55  121 1    
   110   56  122 1    
   111   56  123 1    
   112   56  124 1    
   113   57   58 2    
   114   57   59 am   BACKBONE|DICT|INTERRES
   115   59   60 1    
   116   59  125 1    
   117   60   61 1    
   118   60   62 1    
   119   60  126 1    
   120   61  127 1    
   121   61  128 1    
   122   61  129 1    
   123   62   63 2    
   124   62   64 am   BACKBONE|DICT|INTERRES
   125   64   65 1    
   126   64  130 1    
   127   65   66 1    
   128   65   69 1    
   129   65  131 1    
   130   66   67 am   BACKBONE|DICT|INTERRES
   131   66   68 2    
   132   67  132 1    
   133   67  133 1    
   134   69   70 1    
   135   69  134 1    
   136   69  135 1    
   137   70   71 1    
   138   71  136 1    
   139   71  137 1    
@<TRIPOS>SUBSTRUCTURE
     1 UNK         1 GROUP             0       ****    0 ROOT    
