@<TRIPOS>MOLECULE
3R137
137   139    1
SMALL
USER_CHARGES


@<TRIPOS>ATOM
      1 CA         28.7017    0.3260   -2.6508 C.3       0 UNK        -0.2020 
      2 C          29.4024    0.2227   -1.3006 C.2       0 UNK         0.4855 
      3 O          29.9570    1.2163   -0.8357 O.2       0 UNK        -0.5197 
      4 N          29.4214   -0.9396   -0.6323 N.am      1 UNK        -0.4892 
      5 CA         28.7662   -2.2057   -0.9885 C.3       1 UNK         0.0835 
      6 C6         29.1989   -3.3154    0.0039 C.3       12 UNK        -0.0855 
      7 S7         28.8324   -5.0077   -0.5725 S.3       12 UNK        -0.2931 
      8 C8         30.4517   -5.5505   -1.2113 C.3       12 UNK         0.0378 
      9 C9         30.7997   -4.8691   -2.5271 C.ar      12 UNK        -0.0802 
     10 C10        31.9075   -4.0201   -2.6240 C.ar      12 UNK        -0.0944 
     11 C11        32.2255   -3.4040   -3.8397 C.ar      12 UNK        -0.0787 
     12 C12        31.4095   -3.6265   -4.9556 C.ar      12 UNK        -0.0862 
     13 C13        30.3052   -4.4806   -4.8723 C.ar      12 UNK        -0.0733 
     14 C14        30.0140   -5.1061   -3.6580 C.ar      12 UNK        -0.0832 
     15 C15        29.4326   -4.7485   -6.0922 C.3       12 UNK         0.0240 
     16 S16        27.7262   -4.1557   -5.8533 S.3       12 UNK        -0.2522 
     17 C17        27.9762   -2.3528   -5.8127 C.3       12 UNK        -0.0967 
     18 CA         27.1244   -1.6146   -6.8718 C.3       5 UNK         0.0660 
     19 N          25.6855   -1.8122   -6.7007 N.am      5 UNK        -0.4015 
     20 C          24.7719   -1.5891   -7.6566 C.2       4 UNK         0.4946 
     21 O          25.0518   -1.2842   -8.8159 O.2       4 UNK        -0.5353 
     22 CA         23.2922   -1.6983   -7.2470 C.3       4 UNK         0.0277 
     23 CB         22.7837   -3.1350   -7.4467 C.3       4 UNK        -0.1981 
     24 N          23.0482   -1.2821   -5.8632 N.am      4 UNK        -0.4209 
     25 C          23.2110   -0.0324   -5.4041 C.2       3 UNK         0.4942 
     26 O          23.5196    0.9238   -6.1159 O.2       3 UNK        -0.5208 
     27 CA         23.0646    0.1679   -3.8836 C.3       3 UNK         0.0250 
     28 CB         21.5990    0.4467   -3.5149 C.3       3 UNK        -0.1990 
     29 N          23.5689   -0.9620   -3.0895 N.am      3 UNK        -0.4232 
     30 C          24.8369   -1.3962   -3.1120 C.2       2 UNK         0.4993 
     31 O          25.7122   -0.8896   -3.8179 O.2       2 UNK        -0.5286 
     32 CA         25.1578   -2.6489   -2.2800 C.3       2 UNK         0.0209 
     33 CB         24.7197   -3.9126   -3.0394 C.3       2 UNK        -0.1931 
     34 N          26.5917   -2.7508   -1.9975 N.am      2 UNK        -0.4546 
     35 C          27.2275   -2.0549   -1.0469 C.2       1 UNK         0.5154 
     36 O          26.6525   -1.3205   -0.2387 O.2       1 UNK        -0.5181 
     37 C          27.4534   -0.1149   -6.8722 C.2       5 UNK         0.5014 
     38 O          28.2273    0.3248   -7.7200 O.2       5 UNK        -0.5248 
     39 N          26.8709    0.6528   -5.9368 N.am      6 UNK        -0.4434 
     40 CA         27.0470    2.1071   -5.8251 C.3       6 UNK         0.0363 
     41 CB         26.2488    2.6486   -4.6288 C.3       6 UNK        -0.1936 
     42 C          26.6630    2.8510   -7.1155 C.2       6 UNK         0.5081 
     43 O          27.4270    3.6967   -7.5812 O.2       6 UNK        -0.5248 
     44 N          25.5318    2.4540   -7.7147 N.am      7 UNK        -0.4718 
     45 CA         25.0550    2.9246   -9.0194 C.3       7 UNK         0.0273 
     46 CB         23.6473    2.3573   -9.2634 C.3       7 UNK        -0.1935 
     47 C          25.9834    2.5776  -10.2023 C.2       7 UNK         0.5018 
     48 O          25.9081    3.2452  -11.2343 O.2       7 UNK        -0.5186 
     49 N          26.8375    1.5590  -10.0376 N.am      8 UNK        -0.4240 
     50 CA         27.8186    1.0963  -11.0205 C.3       8 UNK         0.0235 
     51 CB         27.7527   -0.4407  -11.0860 C.3       8 UNK        -0.2000 
     52 C          29.2493    1.5770  -10.7020 C.2       8 UNK         0.4941 
     53 O          30.1826    1.1138  -11.3592 O.2       8 UNK        -0.5273 
     54 N          29.4062    2.4820   -9.7201 N.am      9 UNK        -0.4262 
     55 CA         30.6695    3.0347   -9.2116 C.3       9 UNK         0.0264 
     56 CB         31.3971    3.8623  -10.2937 C.3       9 UNK        -0.1955 
     57 C          31.5637    1.9587   -8.5620 C.2       9 UNK         0.5031 
     58 O          32.7140    1.7778   -8.9705 O.2       9 UNK        -0.5390 
     59 N          30.9842    1.2745   -7.5632 N.am      10 UNK        -0.4204 
     60 CA         31.5098    0.1841   -6.7307 C.3       10 UNK         0.0237 
     61 CB         30.8106    0.2387   -5.3601 C.3       10 UNK        -0.1985 
     62 C          33.0328    0.1770   -6.5193 C.2       10 UNK         0.4970 
     63 O          33.5484    1.0119   -5.7728 O.2       10 UNK        -0.4914 
     64 N          33.7042   -0.7881   -7.1589 N.am      11 UNK        -0.4285 
     65 CA         35.1465   -1.0630   -7.0401 C.3       11 UNK         0.1007 
     66 C          36.0814    0.0734   -7.5620 C.2       11 UNK         0.5703 
     67 N          35.5871    1.0613   -8.3007 N.am      11 UNK        -0.7361 
     68 O          37.2878    0.0406   -7.3292 O.2       11 UNK        -0.4986 
     69 C69        35.5429   -1.5822   -5.6233 C.3       12 UNK        -0.0947 
     70 S70        34.6507   -3.1102   -5.1631 S.3       12 UNK        -0.2240 
     71 C71        33.4412   -2.4899   -3.9484 C.3       12 UNK         0.0194 
     72 H72        29.0516    1.2026   -3.1948 H         1 UNK         0.0906 
     73 H73        28.8867   -0.5483   -3.2708 H         1 UNK         0.0906 
     74 H74        27.6279    0.4339   -2.5075 H         1 UNK         0.0906 
     75 H75        29.8795   -0.9448    0.2676 H         1 UNK         0.3140 
     76 H76        29.1260   -2.4821   -1.9818 H         1 UNK         0.1085 
     77 H77        30.2720   -3.2491    0.1917 H         1 UNK         0.0836 
     78 H78        28.7244   -3.1700    0.9767 H         1 UNK         0.0836 
     79 H79        31.2221   -5.3769   -0.4583 H         1 UNK         0.0731 
     80 H80        30.4213   -6.6293   -1.3713 H         1 UNK         0.0731 
     81 H81        32.5259   -3.8436   -1.7544 H         1 UNK         0.1312 
     82 H82        31.6501   -3.1470   -5.8943 H         1 UNK         0.1406 
     83 H83        29.1620   -5.7696   -3.5891 H         1 UNK         0.1631 
     84 H84        29.8532   -4.2885   -6.9878 H         1 UNK         0.0717 
     85 H85        29.4083   -5.8224   -6.2819 H         1 UNK         0.0717 
     86 H86        27.7523   -2.0052   -4.8052 H         1 UNK         0.0934 
     87 H87        29.0338   -2.1376   -5.9731 H         1 UNK         0.0934 
     88 H88        27.4040   -2.0061   -7.8527 H         1 UNK         0.0739 
     89 H89        25.3756   -2.0121   -5.7608 H         1 UNK         0.3093 
     90 H90        22.7208   -1.0364   -7.9017 H         1 UNK         0.0818 
     91 H91        21.7167   -3.2117   -7.2372 H         1 UNK         0.0819 
     92 H92        22.9334   -3.4605   -8.4773 H         1 UNK         0.0819 
     93 H93        23.3059   -3.8439   -6.8027 H         1 UNK         0.0819 
     94 H94        22.7766   -2.0012   -5.2090 H         1 UNK         0.3041 
     95 H95        23.6549    1.0453   -3.6127 H         1 UNK         0.0784 
     96 H96        21.2104    1.2960   -4.0790 H         1 UNK         0.0793 
     97 H97        20.9565   -0.4082   -3.7293 H         1 UNK         0.0793 
     98 H98        21.4950    0.6892   -2.4572 H         1 UNK         0.0793 
     99 H99        22.8997   -1.4324   -2.4965 H         1 UNK         0.3024 
    100 H100       24.6125   -2.5916   -1.3349 H         1 UNK         0.1171 
    101 H101       24.9392   -4.8136   -2.4659 H         1 UNK         0.0786 
    102 H102       23.6457   -3.9088   -3.2295 H         1 UNK         0.0786 
    103 H103       25.2217   -4.0019   -4.0036 H         1 UNK         0.0786 
    104 H104       27.1298   -3.3352   -2.6207 H         1 UNK         0.2977 
    105 H105       26.2920    0.2013   -5.2313 H         1 UNK         0.3127 
    106 H106       28.1066    2.2922   -5.6378 H         1 UNK         0.0770 
    107 H107       25.1745    2.5474   -4.7792 H         1 UNK         0.0814 
    108 H108       26.4539    3.7089   -4.4761 H         1 UNK         0.0814 
    109 H109       26.5060    2.1333   -3.7048 H         1 UNK         0.0814 
    110 H110       24.9460    1.7759   -7.2337 H         1 UNK         0.2983 
    111 H111       24.9858    4.0135   -8.9731 H         1 UNK         0.0947 
    112 H112       23.2399    2.7109  -10.2116 H         1 UNK         0.0806 
    113 H113       22.9546    2.6626   -8.4788 H         1 UNK         0.0806 
    114 H114       23.6552    1.2668   -9.2960 H         1 UNK         0.0806 
    115 H115       26.8643    1.0870   -9.1411 H         1 UNK         0.3000 
    116 H116       27.5663    1.4859  -12.0087 H         1 UNK         0.0850 
    117 H117       26.7413   -0.7854  -11.3028 H         1 UNK         0.0810 
    118 H118       28.0653   -0.8976  -10.1466 H         1 UNK         0.0810 
    119 H119       28.4022   -0.8305  -11.8706 H         1 UNK         0.0810 
    120 H120       28.5748    2.7843   -9.2248 H         1 UNK         0.3040 
    121 H121       30.3948    3.7246   -8.4119 H         1 UNK         0.0766 
    122 H122       30.7487    4.6361  -10.7043 H         1 UNK         0.0812 
    123 H123       31.7443    3.2414  -11.1200 H         1 UNK         0.0812 
    124 H124       32.2729    4.3605   -9.8762 H         1 UNK         0.0812 
    125 H125       29.9914    1.4366   -7.4423 H         1 UNK         0.3205 
    126 H126       31.2161   -0.7459   -7.2205 H         1 UNK         0.0754 
    127 H127       31.0848    1.1356   -4.8026 H         1 UNK         0.0769 
    128 H128       31.0716   -0.6210   -4.7446 H         1 UNK         0.0769 
    129 H129       29.7307    0.2401   -5.4537 H         1 UNK         0.0769 
    130 H130       33.2021   -1.3974   -7.7874 H         1 UNK         0.2981 
    131 H131       35.3294   -1.8829   -7.7353 H         1 UNK         0.0541 
    132 H132       36.2088    1.7770   -8.6409 H         1 UNK         0.3459 
    133 H133       34.5921    1.1289   -8.4897 H         1 UNK         0.3459 
    134 H134       35.3847   -0.8131   -4.8658 H         1 UNK         0.0612 
    135 H135       36.6073   -1.8201   -5.5897 H         1 UNK         0.0612 
    136 H136       33.1117   -1.4913   -4.2254 H         1 UNK         0.0624 
    137 H137       33.9404   -2.3869   -2.9839 H         1 UNK         0.0624 
@<TRIPOS>BOND
     1    1    2 1    
     2    1   72 1    
     3    1   73 1    
     4    1   74 1    
     5    2    3 2    
     6    2    4 am   BACKBONE|DICT|INTERRES
     7    4    5 1    
     8    4   75 1    
     9    5    6 1    
    10    5   35 1    
    11    5   76 1    
    12    6    7 1    
    13    6   77 1    
    14    6   78 1    
    15    7    8 1    
    16    8    9 1    
    17    8   79 1    
    18    8   80 1    
    19    9   10 ar   
    20    9   14 ar   
    21   10   11 ar   
    22   10   81 1    
    23   11   12 ar   
    24   11   71 1    
    25   12   13 ar   
    26   12   82 1    
    27   13   14 ar   
    28   13   15 1    
    29   14   83 1    
    30   15   16 1    
    31   15   84 1    
    32   15   85 1    
    33   16   17 1    
    34   17   18 1    
    35   17   86 1    
    36   17   87 1    
    37   18   19 1    
    38   18   37 1    
    39   18   88 1    
    40   19   20 am   BACKBONE|DICT|INTERRES
    41   19   89 1    
    42   20   21 2    
    43   20   22 1    
    44   22   23 1    
    45   22   24 1    
    46   22   90 1    
    47   23   91 1    
    48   23   92 1    
    49   23   93 1    
    50   24   25 am   BACKBONE|DICT|INTERRES
    51   24   94 1    
    52   25   26 2    
    53   25   27 1    
    54   27   28 1    
    55   27   29 1    
    56   27   95 1    
    57   28   96 1    
    58   28   97 1    
    59   28   98 1    
    60   29   30 am   BACKBONE|DICT|INTERRES
    61   29   99 1    
    62   30   31 2    
    63   30   32 1    
    64   32   33 1    
    65   32   34 1    
    66   32  100 1    
    67   33  101 1    
    68   33  102 1    
    69   33  103 1    
    70   34   35 am   BACKBONE|DICT|INTERRES
    71   34  104 1    
    72   35   36 2    
    73   37   38 2    
    74   37   39 am   BACKBONE|DICT|INTERRES
    75   39   40 1    
    76   39  105 1    
    77   40   41 1    
    78   40   42 1    
    79   40  106 1    
    80   41  107 1    
    81   41  108 1    
    82   41  109 1    
    83   42   43 2    
    84   42   44 am   BACKBONE|DICT|INTERRES
    85   44   45 1    
    86   44  110 1    
    87   45   46 1    
    88   45   47 1    
    89   45  111 1    
    90   46  112 1    
    91   46  113 1    
    92   46  114 1    
    93   47   48 2    
    94   47   49 am   BACKBONE|DICT|INTERRES
    95   49   50 1    
    96   49  115 1    
    97   50   51 1    
    98   50   52 1    
    99   50  116 1    
   100   51  117 1    
   101   51  118 1    
   102   51  119 1    
   103   52   53 2    
   104   52   54 am   BACKBONE|DICT|INTERRES
   105   54   55 1    
   106   54  120 1    
   107   55   56 1    
   108   55   57 1    
   109   55  121 1    
   110   56  122 1    
   111   56  123 1    
   112   56  124 1    
   113   57   58 2    
   114   57   59 am   BACKBONE|DICT|INTERRES
   115   59   60 1    
   116   59  125 1    
   117   60   61 1    
   118   60   62 1    
   119   60  126 1    
   120   61  127 1    
   121   61  128 1    
   122   61  129 1    
   123   62   63 2    
   124   62   64 am   BACKBONE|DICT|INTERRES
   125   64   65 1    
   126   64  130 1    
   127   65   66 1    
   128   65   69 1    
   129   65  131 1    
   130   66   67 am   BACKBONE|DICT|INTERRES
   131   66   68 2    
   132   67  132 1    
   133   67  133 1    
   134   69   70 1    
   135   69  134 1    
   136   69  135 1    
   137   70   71 1    
   138   71  136 1    
   139   71  137 1    
@<TRIPOS>SUBSTRUCTURE
     1 UNK         1 GROUP             0       ****    0 ROOT    
