@<TRIPOS>MOLECULE
3R137
137   139    1
SMALL
USER_CHARGES


@<TRIPOS>ATOM
      1 CA         28.1008   -4.3278    3.1079 C.3       0 UNK        -0.2020 
      2 C          28.2933   -3.9208    1.6545 C.2       0 UNK         0.4855 
      3 O          28.7448   -4.7366    0.8502 O.2       0 UNK        -0.5197 
      4 N          27.9552   -2.6675    1.3212 N.am      1 UNK        -0.4892 
      5 CA         28.0347   -2.0642   -0.0170 C.3       1 UNK         0.0835 
      6 C6         29.4901   -1.9025   -0.5420 C.3       12 UNK        -0.0855 
      7 S7         30.4941   -0.8283    0.5385 S.3       12 UNK        -0.2931 
      8 C8         32.1733   -1.1267   -0.1138 C.3       12 UNK         0.0378 
      9 C9         32.2930   -0.8710   -1.6135 C.ar      12 UNK        -0.0802 
     10 C10        32.9218   -1.8121   -2.4341 C.ar      12 UNK        -0.0944 
     11 C11        33.0234   -1.6003   -3.8123 C.ar      12 UNK        -0.0787 
     12 C12        32.4751   -0.4422   -4.3729 C.ar      12 UNK        -0.0862 
     13 C13        31.8551    0.5149   -3.5641 C.ar      12 UNK        -0.0733 
     14 C14        31.7878    0.3026   -2.1830 C.ar      12 UNK        -0.0832 
     15 C15        31.2943    1.7883   -4.1891 C.3       12 UNK         0.0240 
     16 S16        29.6376    2.2390   -3.5721 S.3       12 UNK        -0.2522 
     17 C17        28.6036    0.8902   -4.2369 C.3       12 UNK        -0.0967 
     18 CA         28.0806    1.1656   -5.6683 C.3       5 UNK         0.0660 
     19 N          27.5122   -0.0412   -6.2744 N.am      5 UNK        -0.4015 
     20 C          27.2344   -0.1666   -7.5817 C.2       4 UNK         0.4946 
     21 O          27.4400    0.7220   -8.4052 O.2       4 UNK        -0.5353 
     22 CA         26.5692   -1.4710   -8.0566 C.3       4 UNK         0.0277 
     23 CB         27.6392   -2.4996   -8.4481 C.3       4 UNK        -0.1981 
     24 N          25.6708   -2.0638   -7.0659 N.am      4 UNK        -0.4209 
     25 C          24.5924   -1.4625   -6.5438 C.2       3 UNK         0.4942 
     26 O          24.1695   -0.3714   -6.9245 O.2       3 UNK        -0.5208 
     27 CA         23.9119   -2.1647   -5.3529 C.3       3 UNK         0.0250 
     28 CB         22.6931   -2.9694   -5.8311 C.3       3 UNK        -0.1990 
     29 N          24.8029   -3.0406   -4.5756 N.am      3 UNK        -0.4232 
     30 C          25.9320   -2.6485   -3.9668 C.2       2 UNK         0.4993 
     31 O          26.3756   -1.4984   -4.0225 O.2       2 UNK        -0.5286 
     32 CA         26.7496   -3.7407   -3.2604 C.3       2 UNK         0.0209 
     33 CB         27.6843   -4.4284   -4.2699 C.3       2 UNK        -0.1931 
     34 N          27.5590   -3.1760   -2.1793 N.am      2 UNK        -0.4546 
     35 C          27.0712   -2.7735   -0.9978 C.2       1 UNK         0.5154 
     36 O          25.8927   -2.9301   -0.6667 O.2       1 UNK        -0.5181 
     37 C          27.0876    2.3465   -5.7258 C.2       5 UNK         0.5014 
     38 O          27.4996    3.4675   -6.0265 O.2       5 UNK        -0.5248 
     39 N          25.7898    2.0738   -5.5154 N.am      6 UNK        -0.4434 
     40 CA         24.7092    3.0559   -5.6665 C.3       6 UNK         0.0363 
     41 CB         23.4060    2.4911   -5.0790 C.3       6 UNK        -0.1936 
     42 C          24.5059    3.5050   -7.1268 C.2       6 UNK         0.5081 
     43 O          24.0943    4.6418   -7.3576 O.2       6 UNK        -0.5248 
     44 N          24.8351    2.6255   -8.0826 N.am      7 UNK        -0.4718 
     45 CA         24.8748    2.9136   -9.5193 C.3       7 UNK         0.0273 
     46 CB         24.6194    1.6074  -10.2916 C.3       7 UNK        -0.1935 
     47 C          26.1961    3.5712   -9.9745 C.2       7 UNK         0.5018 
     48 O          26.3214    3.8822  -11.1598 O.2       7 UNK        -0.5186 
     49 N          27.1493    3.7646   -9.0480 N.am      8 UNK        -0.4240 
     50 CA         28.4986    4.3111   -9.2402 C.3       8 UNK         0.0235 
     51 CB         28.4416    5.7873   -9.6897 C.3       8 UNK        -0.2000 
     52 C          29.3970    3.4360  -10.1391 C.2       8 UNK         0.4941 
     53 O          30.2281    3.9685  -10.8782 O.2       8 UNK        -0.5273 
     54 N          29.2283    2.1123  -10.0490 N.am      9 UNK        -0.4262 
     55 CA         30.0277    1.0964  -10.7296 C.3       9 UNK         0.0264 
     56 CB         29.0694    0.1666  -11.4960 C.3       9 UNK        -0.1955 
     57 C          30.8567    0.3065   -9.7026 C.2       9 UNK         0.5031 
     58 O          30.6628    0.4541   -8.4924 O.2       9 UNK        -0.5390 
     59 N          31.7737   -0.5298  -10.2058 N.am      10 UNK        -0.4204 
     60 CA         32.5678   -1.4604   -9.4008 C.3       10 UNK         0.0237 
     61 CB         33.7337   -1.9988  -10.2461 C.3       10 UNK        -0.1985 
     62 C          31.6999   -2.6173   -8.8780 C.2       10 UNK         0.4970 
     63 O          30.8269   -3.0994   -9.6025 O.2       10 UNK        -0.4914 
     64 N          31.9747   -3.0503   -7.6433 N.am      11 UNK        -0.4285 
     65 CA         31.2433   -4.1184   -6.9452 C.3       11 UNK         0.1007 
     66 C          31.5482   -5.5689   -7.4255 C.2       11 UNK         0.5703 
     67 N          32.5336   -5.7928   -8.2871 N.am      11 UNK        -0.7361 
     68 O          30.8651   -6.5059   -7.0193 O.2       11 UNK        -0.4986 
     69 C69        31.3412   -3.9508   -5.4051 C.3       12 UNK        -0.0947 
     70 S70        33.0009   -4.2557   -4.7037 S.3       12 UNK        -0.2240 
     71 C71        33.7627   -2.6004   -4.6911 C.3       12 UNK         0.0194 
     72 H72        27.7040   -3.5123    3.7122 H         1 UNK         0.0906 
     73 H73        29.0524   -4.6367    3.5397 H         1 UNK         0.0906 
     74 H74        27.4083   -5.1666    3.1739 H         1 UNK         0.0906 
     75 H75        27.5698   -2.0626    2.0332 H         1 UNK         0.3140 
     76 H76        27.6229   -1.0587    0.0869 H         1 UNK         0.1085 
     77 H77        29.4904   -1.4435   -1.5324 H         1 UNK         0.0836 
     78 H78        29.9842   -2.8706   -0.6425 H         1 UNK         0.0836 
     79 H79        32.8768   -0.4797    0.4115 H         1 UNK         0.0731 
     80 H80        32.4581   -2.1525    0.1260 H         1 UNK         0.0731 
     81 H81        33.3380   -2.7127   -2.0032 H         1 UNK         0.1312 
     82 H82        32.5477   -0.2742   -5.4390 H         1 UNK         0.1406 
     83 H83        31.3189    1.0433   -1.5495 H         1 UNK         0.1631 
     84 H84        31.2493    1.7006   -5.2761 H         1 UNK         0.0717 
     85 H85        31.9799    2.6090   -3.9747 H         1 UNK         0.0717 
     86 H86        29.1844   -0.0335   -4.2208 H         1 UNK         0.0934 
     87 H87        27.7732    0.7261   -3.5477 H         1 UNK         0.0934 
     88 H88        28.9393    1.4430   -6.2846 H         1 UNK         0.0739 
     89 H89        27.2367   -0.7755   -5.6292 H         1 UNK         0.3093 
     90 H90        25.9762   -1.2349   -8.9424 H         1 UNK         0.0818 
     91 H91        28.3270   -2.0869   -9.1867 H         1 UNK         0.0819 
     92 H92        28.2340   -2.8034   -7.5873 H         1 UNK         0.0819 
     93 H93        27.1951   -3.3937   -8.8858 H         1 UNK         0.0819 
     94 H94        25.9291   -2.9683   -6.7014 H         1 UNK         0.3041 
     95 H95        23.5606   -1.3797   -4.6798 H         1 UNK         0.0784 
     96 H96        22.0029   -2.3363   -6.3909 H         1 UNK         0.0793 
     97 H97        22.9829   -3.7929   -6.4850 H         1 UNK         0.0793 
     98 H98        22.1367   -3.3856   -4.9910 H         1 UNK         0.0793 
     99 H99        24.5206   -4.0078   -4.4983 H         1 UNK         0.3024 
    100 H100       26.0673   -4.4818   -2.8373 H         1 UNK         0.1171 
    101 H101       27.1169   -4.9244   -5.0584 H         1 UNK         0.0786 
    102 H102       28.3533   -3.7135   -4.7506 H         1 UNK         0.0786 
    103 H103       28.2969   -5.1913   -3.7886 H         1 UNK         0.0786 
    104 H104       28.5296   -2.9999   -2.3888 H         1 UNK         0.2977 
    105 H105       25.5164    1.1214   -5.3160 H         1 UNK         0.3127 
    106 H106       24.9827    3.9416   -5.0888 H         1 UNK         0.0770 
    107 H107       23.0586    1.6144   -5.6255 H         1 UNK         0.0814 
    108 H108       22.6087    3.2343   -5.1219 H         1 UNK         0.0814 
    109 H109       23.5291    2.2097   -4.0331 H         1 UNK         0.0814 
    110 H110       25.1395    1.7023   -7.8003 H         1 UNK         0.2983 
    111 H111       24.0701    3.6114   -9.7608 H         1 UNK         0.0947 
    112 H112       25.4297    0.8916  -10.1542 H         1 UNK         0.0806 
    113 H113       24.5348    1.7972  -11.3623 H         1 UNK         0.0806 
    114 H114       23.6922    1.1305   -9.9732 H         1 UNK         0.0806 
    115 H115       26.9491    3.4595   -8.1028 H         1 UNK         0.3000 
    116 H116       28.9664    4.2917   -8.2547 H         1 UNK         0.0850 
    117 H117       29.4354    6.2365   -9.6830 H         1 UNK         0.0810 
    118 H118       27.8153    6.3805   -9.0235 H         1 UNK         0.0810 
    119 H119       28.0475    5.8885  -10.7013 H         1 UNK         0.0810 
    120 H120       28.5584    1.7404   -9.3745 H         1 UNK         0.3040 
    121 H121       30.7173    1.5586  -11.4389 H         1 UNK         0.0766 
    122 H122       28.3634   -0.3244  -10.8260 H         1 UNK         0.0812 
    123 H123       29.6095   -0.6144  -12.0320 H         1 UNK         0.0812 
    124 H124       28.4907    0.7227  -12.2337 H         1 UNK         0.0812 
    125 H125       31.8528   -0.6200  -11.2083 H         1 UNK         0.3205 
    126 H126       32.9794   -0.9112   -8.5508 H         1 UNK         0.0754 
    127 H127       34.3665   -2.6669   -9.6603 H         1 UNK         0.0769 
    128 H128       34.3687   -1.1896  -10.6075 H         1 UNK         0.0769 
    129 H129       33.3801   -2.5606  -11.1119 H         1 UNK         0.0769 
    130 H130       32.7344   -2.6329   -7.1299 H         1 UNK         0.2981 
    131 H131       30.1902   -3.9756   -7.1897 H         1 UNK         0.0541 
    132 H132       33.0956   -5.0319   -8.6309 H         1 UNK         0.3459 
    133 H133       32.7154   -6.7353   -8.5940 H         1 UNK         0.3459 
    134 H134       30.6558   -4.6448   -4.9166 H         1 UNK         0.0612 
    135 H135       30.9967   -2.9575   -5.1149 H         1 UNK         0.0612 
    136 H136       33.8500   -2.2337   -5.7137 H         1 UNK         0.0624 
    137 H137       34.7842   -2.6975   -4.3210 H         1 UNK         0.0624 
@<TRIPOS>BOND
     1    1    2 1    
     2    1   72 1    
     3    1   73 1    
     4    1   74 1    
     5    2    3 2    
     6    2    4 am   BACKBONE|DICT|INTERRES
     7    4    5 1    
     8    4   75 1    
     9    5    6 1    
    10    5   35 1    
    11    5   76 1    
    12    6    7 1    
    13    6   77 1    
    14    6   78 1    
    15    7    8 1    
    16    8    9 1    
    17    8   79 1    
    18    8   80 1    
    19    9   10 ar   
    20    9   14 ar   
    21   10   11 ar   
    22   10   81 1    
    23   11   12 ar   
    24   11   71 1    
    25   12   13 ar   
    26   12   82 1    
    27   13   14 ar   
    28   13   15 1    
    29   14   83 1    
    30   15   16 1    
    31   15   84 1    
    32   15   85 1    
    33   16   17 1    
    34   17   18 1    
    35   17   86 1    
    36   17   87 1    
    37   18   19 1    
    38   18   37 1    
    39   18   88 1    
    40   19   20 am   BACKBONE|DICT|INTERRES
    41   19   89 1    
    42   20   21 2    
    43   20   22 1    
    44   22   23 1    
    45   22   24 1    
    46   22   90 1    
    47   23   91 1    
    48   23   92 1    
    49   23   93 1    
    50   24   25 am   BACKBONE|DICT|INTERRES
    51   24   94 1    
    52   25   26 2    
    53   25   27 1    
    54   27   28 1    
    55   27   29 1    
    56   27   95 1    
    57   28   96 1    
    58   28   97 1    
    59   28   98 1    
    60   29   30 am   BACKBONE|DICT|INTERRES
    61   29   99 1    
    62   30   31 2    
    63   30   32 1    
    64   32   33 1    
    65   32   34 1    
    66   32  100 1    
    67   33  101 1    
    68   33  102 1    
    69   33  103 1    
    70   34   35 am   BACKBONE|DICT|INTERRES
    71   34  104 1    
    72   35   36 2    
    73   37   38 2    
    74   37   39 am   BACKBONE|DICT|INTERRES
    75   39   40 1    
    76   39  105 1    
    77   40   41 1    
    78   40   42 1    
    79   40  106 1    
    80   41  107 1    
    81   41  108 1    
    82   41  109 1    
    83   42   43 2    
    84   42   44 am   BACKBONE|DICT|INTERRES
    85   44   45 1    
    86   44  110 1    
    87   45   46 1    
    88   45   47 1    
    89   45  111 1    
    90   46  112 1    
    91   46  113 1    
    92   46  114 1    
    93   47   48 2    
    94   47   49 am   BACKBONE|DICT|INTERRES
    95   49   50 1    
    96   49  115 1    
    97   50   51 1    
    98   50   52 1    
    99   50  116 1    
   100   51  117 1    
   101   51  118 1    
   102   51  119 1    
   103   52   53 2    
   104   52   54 am   BACKBONE|DICT|INTERRES
   105   54   55 1    
   106   54  120 1    
   107   55   56 1    
   108   55   57 1    
   109   55  121 1    
   110   56  122 1    
   111   56  123 1    
   112   56  124 1    
   113   57   58 2    
   114   57   59 am   BACKBONE|DICT|INTERRES
   115   59   60 1    
   116   59  125 1    
   117   60   61 1    
   118   60   62 1    
   119   60  126 1    
   120   61  127 1    
   121   61  128 1    
   122   61  129 1    
   123   62   63 2    
   124   62   64 am   BACKBONE|DICT|INTERRES
   125   64   65 1    
   126   64  130 1    
   127   65   66 1    
   128   65   69 1    
   129   65  131 1    
   130   66   67 am   BACKBONE|DICT|INTERRES
   131   66   68 2    
   132   67  132 1    
   133   67  133 1    
   134   69   70 1    
   135   69  134 1    
   136   69  135 1    
   137   70   71 1    
   138   71  136 1    
   139   71  137 1    
@<TRIPOS>SUBSTRUCTURE
     1 UNK         1 GROUP             0       ****    0 ROOT    
