@<TRIPOS>MOLECULE
3R137
137   139    1
SMALL
USER_CHARGES


@<TRIPOS>ATOM
      1 CA         27.1960   -6.0016   -0.1883 C.3       0 UNK        -0.2020 
      2 C          27.0333   -4.8579   -1.1777 C.2       0 UNK         0.4855 
      3 O          26.9915   -3.6989   -0.7697 O.2       0 UNK        -0.5197 
      4 N          26.9477   -5.1750   -2.4766 N.am      1 UNK        -0.4892 
      5 CA         26.7729   -4.2066   -3.5701 C.3       1 UNK         0.0835 
      6 C6         27.2944   -4.7783   -4.9192 C.3       12 UNK        -0.0855 
      7 S7         28.7792   -3.9106   -5.5237 S.3       12 UNK        -0.2931 
      8 C8         30.0441   -4.3676   -4.2891 C.3       12 UNK         0.0378 
      9 C9         30.6358   -3.1167   -3.6565 C.ar      12 UNK        -0.0802 
     10 C10        31.7962   -2.5388   -4.1789 C.ar      12 UNK        -0.0944 
     11 C11        32.2911   -1.3392   -3.6572 C.ar      12 UNK        -0.0787 
     12 C12        31.6046   -0.7065   -2.6154 C.ar      12 UNK        -0.0862 
     13 C13        30.4443   -1.2793   -2.0823 C.ar      12 UNK        -0.0733 
     14 C14        29.9953   -2.5048   -2.5771 C.ar      12 UNK        -0.0832 
     15 C15        29.6368   -0.5575   -1.0098 C.3       12 UNK         0.0240 
     16 S16        27.9585   -0.1127   -1.5915 S.3       12 UNK        -0.2522 
     17 C17        28.3276    0.8184   -3.1151 C.3       12 UNK        -0.0967 
     18 CA         28.0059   -0.0192   -4.3898 C.3       5 UNK         0.0660 
     19 N          26.5677   -0.0755   -4.6908 N.am      5 UNK        -0.4015 
     20 C          25.8275    0.9155   -5.2145 C.2       4 UNK         0.4946 
     21 O          26.2554    2.0459   -5.4561 O.2       4 UNK        -0.5353 
     22 CA         24.3680    0.5888   -5.5493 C.3       4 UNK         0.0277 
     23 CB         24.2809   -0.3208   -6.7869 C.3       4 UNK        -0.1981 
     24 N          23.6894   -0.0578   -4.4289 N.am      4 UNK        -0.4209 
     25 C          22.9712    0.5838   -3.4948 C.2       3 UNK         0.4942 
     26 O          22.8531    1.8094   -3.4543 O.2       3 UNK        -0.5208 
     27 CA         22.2277   -0.2753   -2.4515 C.3       3 UNK         0.0250 
     28 CB         20.7766    0.2023   -2.2560 C.3       3 UNK        -0.1990 
     29 N          22.2108   -1.6846   -2.8498 N.am      3 UNK        -0.4232 
     30 C          22.8211   -2.6773   -2.1949 C.2       2 UNK         0.4993 
     31 O          23.3169   -2.5598   -1.0732 O.2       2 UNK        -0.5286 
     32 CA         22.9503   -4.0264   -2.9301 C.3       2 UNK         0.0209 
     33 CB         22.2271   -4.0896   -4.2968 C.3       2 UNK        -0.1931 
     34 N          24.3635   -4.3932   -3.0832 N.am      2 UNK        -0.4546 
     35 C          25.3307   -3.6688   -3.6716 C.2       1 UNK         0.5154 
     36 O          25.1333   -2.6009   -4.2585 O.2       1 UNK        -0.5181 
     37 C          28.7984    0.4134   -5.6432 C.2       5 UNK         0.5014 
     38 O          28.8256   -0.3310   -6.6257 O.2       5 UNK        -0.5248 
     39 N          29.3704    1.6259   -5.6233 N.am      6 UNK        -0.4434 
     40 CA         30.1110    2.2372   -6.7268 C.3       6 UNK         0.0363 
     41 CB         30.6721    3.5932   -6.2743 C.3       6 UNK        -0.1936 
     42 C          29.3054    2.3923   -8.0256 C.2       6 UNK         0.5081 
     43 O          29.9062    2.3431   -9.0968 O.2       6 UNK        -0.5248 
     44 N          27.9738    2.5214   -7.9320 N.am      7 UNK        -0.4718 
     45 CA         27.0839    2.5628   -9.0970 C.3       7 UNK         0.0273 
     46 CB         25.6984    3.0753   -8.6723 C.3       7 UNK        -0.1935 
     47 C          26.9755    1.2148   -9.8379 C.2       7 UNK         0.5018 
     48 O          26.5841    1.2128  -11.0056 O.2       7 UNK        -0.5186 
     49 N          27.3272    0.1077   -9.1675 N.am      8 UNK        -0.4240 
     50 CA         27.4039   -1.2299   -9.7536 C.3       8 UNK         0.0235 
     51 CB         26.7443   -2.2496   -8.8080 C.3       8 UNK        -0.2000 
     52 C          28.8609   -1.6198  -10.0390 C.2       8 UNK         0.4941 
     53 O          29.1593   -2.0738  -11.1440 O.2       8 UNK        -0.5273 
     54 N          29.7372   -1.4558   -9.0390 N.am      9 UNK        -0.4262 
     55 CA         31.1226   -1.9294   -9.0698 C.3       9 UNK         0.0264 
     56 CB         31.6019   -2.1356   -7.6258 C.3       9 UNK        -0.1955 
     57 C          32.1046   -1.0229   -9.8297 C.2       9 UNK         0.5031 
     58 O          33.1886   -1.4975  -10.1718 O.2       9 UNK        -0.5390 
     59 N          31.7493    0.2538  -10.0464 N.am      10 UNK        -0.4204 
     60 CA         32.5840    1.3112  -10.6412 C.3       10 UNK         0.0237 
     61 CB         32.9466    0.9857  -12.1067 C.3       10 UNK        -0.1985 
     62 C          33.8164    1.6874   -9.7883 C.2       10 UNK         0.4970 
     63 O          34.7735    2.2525  -10.3197 O.2       10 UNK        -0.4914 
     64 N          33.7686    1.3891   -8.4829 N.am      11 UNK        -0.4285 
     65 CA         34.8181    1.6825   -7.4936 C.3       11 UNK         0.1007 
     66 C          34.8829    3.1624   -7.0104 C.2       11 UNK         0.5703 
     67 N          34.0111    4.0537   -7.4664 N.am      11 UNK        -0.7361 
     68 O          35.7568    3.5143   -6.2213 O.2       11 UNK        -0.4986 
     69 C69        34.7900    0.6657   -6.3191 C.3       12 UNK        -0.0947 
     70 S70        33.1883    0.5645   -5.4508 S.3       12 UNK        -0.2240 
     71 C71        33.5617   -0.7282   -4.2289 C.3       12 UNK         0.0194 
     72 H72        28.1215   -5.8809    0.3742 H         1 UNK         0.0906 
     73 H73        26.3665   -6.0066    0.5183 H         1 UNK         0.0906 
     74 H74        27.2253   -6.9716   -0.6844 H         1 UNK         0.0906 
     75 H75        26.9918   -6.1471   -2.7505 H         1 UNK         0.3140 
     76 H76        27.3488   -3.3158   -3.3233 H         1 UNK         0.1085 
     77 H77        26.5452   -4.7058   -5.7109 H         1 UNK         0.0836 
     78 H78        27.5238   -5.8429   -4.8480 H         1 UNK         0.0836 
     79 H79        29.6211   -5.0128   -3.5183 H         1 UNK         0.0731 
     80 H80        30.8247   -4.9508   -4.7799 H         1 UNK         0.0731 
     81 H81        32.3068   -3.0154   -5.0038 H         1 UNK         0.1312 
     82 H82        31.9671    0.2385   -2.2342 H         1 UNK         0.1406 
     83 H83        29.1089   -2.9455   -2.1489 H         1 UNK         0.1631 
     84 H84        30.1497    0.3476   -0.6806 H         1 UNK         0.0717 
     85 H85        29.5488   -1.1998   -0.1325 H         1 UNK         0.0717 
     86 H86        27.7592    1.7501   -3.1019 H         1 UNK         0.0934 
     87 H87        29.3784    1.1085   -3.0718 H         1 UNK         0.0934 
     88 H88        28.3148   -1.0494   -4.2140 H         1 UNK         0.0739 
     89 H89        26.1234   -0.9785   -4.5503 H         1 UNK         0.3093 
     90 H90        23.8641    1.5275   -5.7912 H         1 UNK         0.0818 
     91 H91        23.2451   -0.4763   -7.0887 H         1 UNK         0.0819 
     92 H92        24.8016    0.1164   -7.6385 H         1 UNK         0.0819 
     93 H93        24.7233   -1.3004   -6.6043 H         1 UNK         0.0819 
     94 H94        23.8398   -1.0568   -4.3325 H         1 UNK         0.3041 
     95 H95        22.7609   -0.1478   -1.5072 H         1 UNK         0.0784 
     96 H96        20.7451    1.2345   -1.9046 H         1 UNK         0.0793 
     97 H97        20.2076    0.1553   -3.1853 H         1 UNK         0.0793 
     98 H98        20.2577   -0.4048   -1.5140 H         1 UNK         0.0793 
     99 H99        21.8192   -1.8839   -3.7600 H         1 UNK         0.3024 
    100 H100       22.4952   -4.7723   -2.2761 H         1 UNK         0.1171 
    101 H101       22.3174   -5.0836   -4.7353 H         1 UNK         0.0786 
    102 H102       22.6328   -3.3801   -5.0190 H         1 UNK         0.0786 
    103 H103       21.1599   -3.8898   -4.1908 H         1 UNK         0.0786 
    104 H104       24.6525   -5.2288   -2.5948 H         1 UNK         0.2977 
    105 H105       29.2462    2.1978   -4.8013 H         1 UNK         0.3127 
    106 H106       30.9481    1.5789   -6.9600 H         1 UNK         0.0770 
    107 H107       29.8825    4.2633   -5.9323 H         1 UNK         0.0814 
    108 H108       31.1895    4.0961   -7.0917 H         1 UNK         0.0814 
    109 H109       31.3912    3.4736   -5.4634 H         1 UNK         0.0814 
    110 H110       27.5357    2.5181   -7.0151 H         1 UNK         0.2983 
    111 H111       27.4993    3.2801   -9.8087 H         1 UNK         0.0947 
    112 H112       25.0308    3.1535   -9.5316 H         1 UNK         0.0806 
    113 H113       25.7638    4.0664   -8.2232 H         1 UNK         0.0806 
    114 H114       25.2221    2.4141   -7.9506 H         1 UNK         0.0806 
    115 H115       27.6789    0.2039   -8.2209 H         1 UNK         0.3000 
    116 H116       26.8639   -1.2617  -10.7025 H         1 UNK         0.0850 
    117 H117       26.8761   -3.2679   -9.1763 H         1 UNK         0.0810 
    118 H118       25.6718   -2.0750   -8.7315 H         1 UNK         0.0810 
    119 H119       27.1647   -2.2108   -7.8020 H         1 UNK         0.0810 
    120 H120       29.4029   -1.0917   -8.1467 H         1 UNK         0.3040 
    121 H121       31.1432   -2.9015   -9.5674 H         1 UNK         0.0766 
    122 H122       32.6552   -2.4171   -7.5878 H         1 UNK         0.0812 
    123 H123       31.0389   -2.9321   -7.1416 H         1 UNK         0.0812 
    124 H124       31.4794   -1.2331   -7.0276 H         1 UNK         0.0812 
    125 H125       30.8417    0.5690   -9.7197 H         1 UNK         0.3205 
    126 H126       31.9635    2.2073  -10.6633 H         1 UNK         0.0754 
    127 H127       33.4086    1.8444  -12.5954 H         1 UNK         0.0769 
    128 H128       32.0605    0.7247  -12.6853 H         1 UNK         0.0769 
    129 H129       33.6512    0.1568  -12.1785 H         1 UNK         0.0769 
    130 H130       32.9471    0.9321   -8.1196 H         1 UNK         0.2981 
    131 H131       35.7727    1.5264   -7.9994 H         1 UNK         0.0541 
    132 H132       33.3115    3.7863   -8.1379 H         1 UNK         0.3459 
    133 H133       34.0751    5.0088   -7.1521 H         1 UNK         0.3459 
    134 H134       35.5736    0.8861   -5.5919 H         1 UNK         0.0612 
    135 H135       35.0194   -0.3280   -6.7070 H         1 UNK         0.0612 
    136 H136       34.1690   -1.5056   -4.6951 H         1 UNK         0.0624 
    137 H137       34.1674   -0.3019   -3.4281 H         1 UNK         0.0624 
@<TRIPOS>BOND
     1    1    2 1    
     2    1   72 1    
     3    1   73 1    
     4    1   74 1    
     5    2    3 2    
     6    2    4 am   BACKBONE|DICT|INTERRES
     7    4    5 1    
     8    4   75 1    
     9    5    6 1    
    10    5   35 1    
    11    5   76 1    
    12    6    7 1    
    13    6   77 1    
    14    6   78 1    
    15    7    8 1    
    16    8    9 1    
    17    8   79 1    
    18    8   80 1    
    19    9   10 ar   
    20    9   14 ar   
    21   10   11 ar   
    22   10   81 1    
    23   11   12 ar   
    24   11   71 1    
    25   12   13 ar   
    26   12   82 1    
    27   13   14 ar   
    28   13   15 1    
    29   14   83 1    
    30   15   16 1    
    31   15   84 1    
    32   15   85 1    
    33   16   17 1    
    34   17   18 1    
    35   17   86 1    
    36   17   87 1    
    37   18   19 1    
    38   18   37 1    
    39   18   88 1    
    40   19   20 am   BACKBONE|DICT|INTERRES
    41   19   89 1    
    42   20   21 2    
    43   20   22 1    
    44   22   23 1    
    45   22   24 1    
    46   22   90 1    
    47   23   91 1    
    48   23   92 1    
    49   23   93 1    
    50   24   25 am   BACKBONE|DICT|INTERRES
    51   24   94 1    
    52   25   26 2    
    53   25   27 1    
    54   27   28 1    
    55   27   29 1    
    56   27   95 1    
    57   28   96 1    
    58   28   97 1    
    59   28   98 1    
    60   29   30 am   BACKBONE|DICT|INTERRES
    61   29   99 1    
    62   30   31 2    
    63   30   32 1    
    64   32   33 1    
    65   32   34 1    
    66   32  100 1    
    67   33  101 1    
    68   33  102 1    
    69   33  103 1    
    70   34   35 am   BACKBONE|DICT|INTERRES
    71   34  104 1    
    72   35   36 2    
    73   37   38 2    
    74   37   39 am   BACKBONE|DICT|INTERRES
    75   39   40 1    
    76   39  105 1    
    77   40   41 1    
    78   40   42 1    
    79   40  106 1    
    80   41  107 1    
    81   41  108 1    
    82   41  109 1    
    83   42   43 2    
    84   42   44 am   BACKBONE|DICT|INTERRES
    85   44   45 1    
    86   44  110 1    
    87   45   46 1    
    88   45   47 1    
    89   45  111 1    
    90   46  112 1    
    91   46  113 1    
    92   46  114 1    
    93   47   48 2    
    94   47   49 am   BACKBONE|DICT|INTERRES
    95   49   50 1    
    96   49  115 1    
    97   50   51 1    
    98   50   52 1    
    99   50  116 1    
   100   51  117 1    
   101   51  118 1    
   102   51  119 1    
   103   52   53 2    
   104   52   54 am   BACKBONE|DICT|INTERRES
   105   54   55 1    
   106   54  120 1    
   107   55   56 1    
   108   55   57 1    
   109   55  121 1    
   110   56  122 1    
   111   56  123 1    
   112   56  124 1    
   113   57   58 2    
   114   57   59 am   BACKBONE|DICT|INTERRES
   115   59   60 1    
   116   59  125 1    
   117   60   61 1    
   118   60   62 1    
   119   60  126 1    
   120   61  127 1    
   121   61  128 1    
   122   61  129 1    
   123   62   63 2    
   124   62   64 am   BACKBONE|DICT|INTERRES
   125   64   65 1    
   126   64  130 1    
   127   65   66 1    
   128   65   69 1    
   129   65  131 1    
   130   66   67 am   BACKBONE|DICT|INTERRES
   131   66   68 2    
   132   67  132 1    
   133   67  133 1    
   134   69   70 1    
   135   69  134 1    
   136   69  135 1    
   137   70   71 1    
   138   71  136 1    
   139   71  137 1    
@<TRIPOS>SUBSTRUCTURE
     1 UNK         1 GROUP             0       ****    0 ROOT    
