@<TRIPOS>MOLECULE
3R137
137   139    1
SMALL
USER_CHARGES


@<TRIPOS>ATOM
      1 CA         28.6808   -0.9202    1.9904 C.3       0 UNK        -0.2020 
      2 C          28.2786   -1.1184    0.5375 C.2       0 UNK         0.4855 
      3 O          28.2149   -0.1519   -0.2203 O.2       0 UNK        -0.5197 
      4 N          27.9820   -2.3615    0.1405 N.am      1 UNK        -0.4892 
      5 CA         27.6517   -2.7775   -1.2325 C.3       1 UNK         0.0835 
      6 C6         28.0068   -4.2682   -1.4774 C.3       12 UNK        -0.0855 
      7 S7         29.7470   -4.6535   -1.0817 S.3       12 UNK        -0.2931 
      8 C8         30.4978   -4.7727   -2.7427 C.3       12 UNK         0.0378 
      9 C9         30.6332   -3.4517   -3.5035 C.ar      12 UNK        -0.0802 
     10 C10        30.6775   -3.4871   -4.8999 C.ar      12 UNK        -0.0944 
     11 C11        30.8864   -2.3215   -5.6446 C.ar      12 UNK        -0.0787 
     12 C12        31.0068   -1.0983   -4.9776 C.ar      12 UNK        -0.0862 
     13 C13        30.9244   -1.0339   -3.5824 C.ar      12 UNK        -0.0733 
     14 C14        30.7700   -2.2180   -2.8535 C.ar      12 UNK        -0.0832 
     15 C15        31.0299    0.2995   -2.8432 C.3       12 UNK         0.0240 
     16 S16        29.9845    1.6332   -3.5310 S.3       12 UNK        -0.2522 
     17 C17        28.3205    0.8817   -3.5483 C.3       12 UNK        -0.0967 
     18 CA         27.8533    0.5917   -4.9987 C.3       5 UNK         0.0660 
     19 N          27.0985   -0.6589   -5.1004 N.am      5 UNK        -0.4015 
     20 C          26.9363   -1.3512   -6.2372 C.2       4 UNK         0.4946 
     21 O          27.3819   -1.0043   -7.3301 O.2       4 UNK        -0.5353 
     22 CA         26.0918   -2.6308   -6.1438 C.3       4 UNK         0.0277 
     23 CB         26.9243   -3.7841   -5.5612 C.3       4 UNK        -0.1981 
     24 N          24.8744   -2.4309   -5.3521 N.am      4 UNK        -0.4209 
     25 C          23.8547   -1.6528   -5.7498 C.2       3 UNK         0.4942 
     26 O          23.8255   -1.0708   -6.8332 O.2       3 UNK        -0.5208 
     27 CA         22.6852   -1.4475   -4.7707 C.3       3 UNK         0.0250 
     28 CB         21.6045   -2.5166   -4.9959 C.3       3 UNK        -0.1990 
     29 N          23.0745   -1.4398   -3.3589 N.am      3 UNK        -0.4232 
     30 C          23.9851   -0.6296   -2.8014 C.2       2 UNK         0.4993 
     31 O          24.6237    0.2191   -3.4259 O.2       2 UNK        -0.5286 
     32 CA         24.2872   -0.8331   -1.3069 C.3       2 UNK         0.0209 
     33 CB         23.2647   -1.7254   -0.5659 C.3       2 UNK        -0.1931 
     34 N          25.6463   -1.3464   -1.1068 N.am      2 UNK        -0.4546 
     35 C          26.1946   -2.4501   -1.6373 C.2       1 UNK         0.5154 
     36 O          25.5993   -3.1888   -2.4254 O.2       1 UNK        -0.5181 
     37 C          27.0907    1.7766   -5.6268 C.2       5 UNK         0.5014 
     38 O          27.7166    2.6824   -6.1779 O.2       5 UNK        -0.5248 
     39 N          25.7510    1.7423   -5.5644 N.am      6 UNK        -0.4434 
     40 CA         24.8682    2.6750   -6.2664 C.3       6 UNK         0.0363 
     41 CB         23.4255    2.4951   -5.7697 C.3       6 UNK        -0.1936 
     42 C          24.9394    2.5188   -7.7966 C.2       6 UNK         0.5081 
     43 O          24.8764    3.5251   -8.5034 O.2       6 UNK        -0.5248 
     44 N          25.0725    1.2746   -8.2819 N.am      7 UNK        -0.4718 
     45 CA         25.2285    0.9540   -9.7025 C.3       7 UNK         0.0273 
     46 CB         25.0041   -0.5489   -9.9345 C.3       7 UNK        -0.1935 
     47 C          26.5853    1.4042  -10.2687 C.2       7 UNK         0.5018 
     48 O          26.6124    1.9913  -11.3517 O.2       7 UNK        -0.5186 
     49 N          27.6761    1.1478   -9.5349 N.am      8 UNK        -0.4240 
     50 CA         29.0236    1.5936   -9.8832 C.3       8 UNK         0.0235 
     51 CB         29.6710    0.6103  -10.8761 C.3       8 UNK        -0.2000 
     52 C          29.8530    1.7088   -8.6025 C.2       8 UNK         0.4941 
     53 O          29.9107    0.7476   -7.8394 O.2       8 UNK        -0.5273 
     54 N          30.5070    2.8609   -8.3988 N.am      9 UNK        -0.4262 
     55 CA         31.3060    3.1618   -7.2017 C.3       9 UNK         0.0264 
     56 CB         31.6780    4.6536   -7.2048 C.3       9 UNK        -0.1955 
     57 C          32.5685    2.2919   -7.0404 C.2       9 UNK         0.5031 
     58 O          33.0758    2.1650   -5.9253 O.2       9 UNK        -0.5390 
     59 N          33.0466    1.7100   -8.1440 N.am      10 UNK        -0.4204 
     60 CA         34.1048    0.7110   -8.1971 C.3       10 UNK         0.0237 
     61 CB         35.4469    1.3846   -8.5289 C.3       10 UNK        -0.1985 
     62 C          33.7073   -0.3045   -9.2716 C.2       10 UNK         0.4970 
     63 O          33.0892    0.0807  -10.2676 O.2       10 UNK        -0.4914 
     64 N          34.0621   -1.5710   -9.0495 N.am      11 UNK        -0.4285 
     65 CA         33.6670   -2.7115   -9.8904 C.3       11 UNK         0.1007 
     66 C          34.7447   -3.8317   -9.9697 C.2       11 UNK         0.5703 
     67 N          35.9733   -3.6038   -9.5174 N.am      11 UNK        -0.7361 
     68 O          34.4767   -4.9200  -10.4737 O.2       11 UNK        -0.4986 
     69 C69        32.2421   -3.2277   -9.5347 C.3       12 UNK        -0.0947 
     70 S70        32.0595   -3.6976   -7.7787 S.3       12 UNK        -0.2240 
     71 C71        30.9696   -2.3682   -7.1671 C.3       12 UNK         0.0194 
     72 H72        27.9838   -0.2436    2.4839 H         1 UNK         0.0906 
     73 H73        28.6919   -1.8597    2.5426 H         1 UNK         0.0906 
     74 H74        29.6773   -0.4827    2.0456 H         1 UNK         0.0906 
     75 H75        28.0336   -3.1155    0.8114 H         1 UNK         0.3140 
     76 H76        28.2625   -2.1862   -1.9136 H         1 UNK         0.1085 
     77 H77        27.8123   -4.5536   -2.5121 H         1 UNK         0.0836 
     78 H78        27.3712   -4.9123   -0.8670 H         1 UNK         0.0836 
     79 H79        29.9228   -5.4894   -3.3315 H         1 UNK         0.0731 
     80 H80        31.4952   -5.2002   -2.6334 H         1 UNK         0.0731 
     81 H81        30.5786   -4.4343   -5.4123 H         1 UNK         0.1312 
     82 H82        31.1508   -0.1890   -5.5462 H         1 UNK         0.1406 
     83 H83        30.7533   -2.1741   -1.7733 H         1 UNK         0.1631 
     84 H84        32.0697    0.6280   -2.8650 H         1 UNK         0.0717 
     85 H85        30.7671    0.1759   -1.7912 H         1 UNK         0.0717 
     86 H86        28.3602   -0.0374   -2.9643 H         1 UNK         0.0934 
     87 H87        27.6219    1.5292   -3.0143 H         1 UNK         0.0934 
     88 H88        28.7414    0.4448   -5.6132 H         1 UNK         0.0739 
     89 H89        26.6122   -0.9659   -4.2715 H         1 UNK         0.3093 
     90 H90        25.7920   -2.9083   -7.1570 H         1 UNK         0.0818 
     91 H91        27.7875   -3.9951   -6.1942 H         1 UNK         0.0819 
     92 H92        26.3415   -4.7023   -5.4888 H         1 UNK         0.0819 
     93 H93        27.3055   -3.5465   -4.5688 H         1 UNK         0.0819 
     94 H94        24.8453   -2.8508   -4.4290 H         1 UNK         0.3041 
     95 H95        22.2461   -0.4723   -4.9874 H         1 UNK         0.0784 
     96 H96        21.2785   -2.5282   -6.0371 H         1 UNK         0.0793 
     97 H97        21.9692   -3.5166   -4.7574 H         1 UNK         0.0793 
     98 H98        20.7219   -2.3252   -4.3852 H         1 UNK         0.0793 
     99 H99        22.6355   -2.1299   -2.7669 H         1 UNK         0.3024 
    100 H100       24.2529    0.1601   -0.8558 H         1 UNK         0.1171 
    101 H101       23.4789   -1.7526    0.5026 H         1 UNK         0.0786 
    102 H102       22.2499   -1.3397   -0.6745 H         1 UNK         0.0786 
    103 H103       23.2732   -2.7555   -0.9242 H         1 UNK         0.0786 
    104 H104       26.2620   -0.7661   -0.5471 H         1 UNK         0.2977 
    105 H105       25.3065    1.0272   -4.9931 H         1 UNK         0.3127 
    106 H106       25.1898    3.6888   -6.0184 H         1 UNK         0.0770 
    107 H107       23.0314    1.5129   -6.0290 H         1 UNK         0.0814 
    108 H108       22.7654    3.2383   -6.2186 H         1 UNK         0.0814 
    109 H109       23.3581    2.6104   -4.6877 H         1 UNK         0.0814 
    110 H110       25.0518    0.4912   -7.6386 H         1 UNK         0.2983 
    111 H111       24.4523    1.4930  -10.2503 H         1 UNK         0.0947 
    112 H112       25.0983   -0.7984  -10.9922 H         1 UNK         0.0806 
    113 H113       24.0064   -0.8533   -9.6177 H         1 UNK         0.0806 
    114 H114       25.7264   -1.1576   -9.3908 H         1 UNK         0.0806 
    115 H115       27.5947    0.6326   -8.6608 H         1 UNK         0.3000 
    116 H116       28.9622    2.5793  -10.3498 H         1 UNK         0.0850 
    117 H117       30.6689    0.9449  -11.1605 H         1 UNK         0.0810 
    118 H118       29.0870    0.5226  -11.7922 H         1 UNK         0.0810 
    119 H119       29.7712   -0.3868  -10.4448 H         1 UNK         0.0810 
    120 H120       30.4166    3.6027   -9.0784 H         1 UNK         0.3040 
    121 H121       30.6740    2.9700   -6.3315 H         1 UNK         0.0766 
    122 H122       30.7889    5.2845   -7.2163 H         1 UNK         0.0812 
    123 H123       32.2909    4.9158   -8.0680 H         1 UNK         0.0812 
    124 H124       32.2456    4.9152   -6.3105 H         1 UNK         0.0812 
    125 H125       32.5371    1.8189   -9.0117 H         1 UNK         0.3205 
    126 H126       34.1775    0.1976   -7.2356 H         1 UNK         0.0754 
    127 H127       36.2524    0.6508   -8.5762 H         1 UNK         0.0769 
    128 H128       35.7190    2.1170   -7.7685 H         1 UNK         0.0769 
    129 H129       35.4134    1.8981   -9.4908 H         1 UNK         0.0769 
    130 H130       34.5571   -1.8108   -8.2027 H         1 UNK         0.2981 
    131 H131       33.6182   -2.3530  -10.9202 H         1 UNK         0.0541 
    132 H132       36.2418   -2.7007   -9.1626 H         1 UNK         0.3459 
    133 H133       36.6599   -4.3388   -9.5841 H         1 UNK         0.3459 
    134 H134       31.5066   -2.4591   -9.7773 H         1 UNK         0.0612 
    135 H135       31.9727   -4.0859  -10.1524 H         1 UNK         0.0612 
    136 H136       31.3465   -1.4185   -7.5478 H         1 UNK         0.0624 
    137 H137       29.9676   -2.4962   -7.5789 H         1 UNK         0.0624 
@<TRIPOS>BOND
     1    1    2 1    
     2    1   72 1    
     3    1   73 1    
     4    1   74 1    
     5    2    3 2    
     6    2    4 am   BACKBONE|DICT|INTERRES
     7    4    5 1    
     8    4   75 1    
     9    5    6 1    
    10    5   35 1    
    11    5   76 1    
    12    6    7 1    
    13    6   77 1    
    14    6   78 1    
    15    7    8 1    
    16    8    9 1    
    17    8   79 1    
    18    8   80 1    
    19    9   10 ar   
    20    9   14 ar   
    21   10   11 ar   
    22   10   81 1    
    23   11   12 ar   
    24   11   71 1    
    25   12   13 ar   
    26   12   82 1    
    27   13   14 ar   
    28   13   15 1    
    29   14   83 1    
    30   15   16 1    
    31   15   84 1    
    32   15   85 1    
    33   16   17 1    
    34   17   18 1    
    35   17   86 1    
    36   17   87 1    
    37   18   19 1    
    38   18   37 1    
    39   18   88 1    
    40   19   20 am   BACKBONE|DICT|INTERRES
    41   19   89 1    
    42   20   21 2    
    43   20   22 1    
    44   22   23 1    
    45   22   24 1    
    46   22   90 1    
    47   23   91 1    
    48   23   92 1    
    49   23   93 1    
    50   24   25 am   BACKBONE|DICT|INTERRES
    51   24   94 1    
    52   25   26 2    
    53   25   27 1    
    54   27   28 1    
    55   27   29 1    
    56   27   95 1    
    57   28   96 1    
    58   28   97 1    
    59   28   98 1    
    60   29   30 am   BACKBONE|DICT|INTERRES
    61   29   99 1    
    62   30   31 2    
    63   30   32 1    
    64   32   33 1    
    65   32   34 1    
    66   32  100 1    
    67   33  101 1    
    68   33  102 1    
    69   33  103 1    
    70   34   35 am   BACKBONE|DICT|INTERRES
    71   34  104 1    
    72   35   36 2    
    73   37   38 2    
    74   37   39 am   BACKBONE|DICT|INTERRES
    75   39   40 1    
    76   39  105 1    
    77   40   41 1    
    78   40   42 1    
    79   40  106 1    
    80   41  107 1    
    81   41  108 1    
    82   41  109 1    
    83   42   43 2    
    84   42   44 am   BACKBONE|DICT|INTERRES
    85   44   45 1    
    86   44  110 1    
    87   45   46 1    
    88   45   47 1    
    89   45  111 1    
    90   46  112 1    
    91   46  113 1    
    92   46  114 1    
    93   47   48 2    
    94   47   49 am   BACKBONE|DICT|INTERRES
    95   49   50 1    
    96   49  115 1    
    97   50   51 1    
    98   50   52 1    
    99   50  116 1    
   100   51  117 1    
   101   51  118 1    
   102   51  119 1    
   103   52   53 2    
   104   52   54 am   BACKBONE|DICT|INTERRES
   105   54   55 1    
   106   54  120 1    
   107   55   56 1    
   108   55   57 1    
   109   55  121 1    
   110   56  122 1    
   111   56  123 1    
   112   56  124 1    
   113   57   58 2    
   114   57   59 am   BACKBONE|DICT|INTERRES
   115   59   60 1    
   116   59  125 1    
   117   60   61 1    
   118   60   62 1    
   119   60  126 1    
   120   61  127 1    
   121   61  128 1    
   122   61  129 1    
   123   62   63 2    
   124   62   64 am   BACKBONE|DICT|INTERRES
   125   64   65 1    
   126   64  130 1    
   127   65   66 1    
   128   65   69 1    
   129   65  131 1    
   130   66   67 am   BACKBONE|DICT|INTERRES
   131   66   68 2    
   132   67  132 1    
   133   67  133 1    
   134   69   70 1    
   135   69  134 1    
   136   69  135 1    
   137   70   71 1    
   138   71  136 1    
   139   71  137 1    
@<TRIPOS>SUBSTRUCTURE
     1 UNK         1 GROUP             0       ****    0 ROOT    
