@<TRIPOS>MOLECULE
3R137
137   139    1
SMALL
USER_CHARGES


@<TRIPOS>ATOM
      1 CA         28.4062   -6.2545    0.9552 C.3       0 UNK        -0.2020 
      2 C          28.1116   -4.9937    0.1567 C.2       0 UNK         0.4855 
      3 O          27.7049   -5.0902   -1.0011 O.2       0 UNK        -0.5197 
      4 N          28.3297   -3.8192    0.7658 N.am      1 UNK        -0.4892 
      5 CA         28.0799   -2.4812    0.2097 C.3       1 UNK         0.0835 
      6 C6         29.0112   -2.1086   -0.9811 C.3       12 UNK        -0.0855 
      7 S7         30.7750   -2.0778   -0.5163 S.3       12 UNK        -0.2931 
      8 C8         31.3772   -3.6676   -1.1691 C.3       12 UNK         0.0378 
      9 C9         31.4113   -3.6983   -2.6905 C.ar      12 UNK        -0.0802 
     10 C10        32.4726   -3.1016   -3.3757 C.ar      12 UNK        -0.0944 
     11 C11        32.5495   -3.1763   -4.7689 C.ar      12 UNK        -0.0787 
     12 C12        31.5467   -3.8464   -5.4780 C.ar      12 UNK        -0.0862 
     13 C13        30.4678   -4.4325   -4.8060 C.ar      12 UNK        -0.0733 
     14 C14        30.4106   -4.3593   -3.4108 C.ar      12 UNK        -0.0832 
     15 C15        29.4007   -5.2048   -5.5741 C.3       12 UNK         0.0240 
     16 S16        28.6257   -4.2339   -6.9061 S.3       12 UNK        -0.2522 
     17 C17        27.4281   -3.2006   -5.9959 C.3       12 UNK        -0.0967 
     18 CA         26.9379   -2.0223   -6.8778 C.3       5 UNK         0.0660 
     19 N          25.5583   -1.6167   -6.5878 N.am      5 UNK        -0.4015 
     20 C          24.8115   -0.8729   -7.4194 C.2       4 UNK         0.4946 
     21 O          25.2059   -0.4533   -8.5063 O.2       4 UNK        -0.5353 
     22 CA         23.3991   -0.4955   -6.9480 C.3       4 UNK         0.0277 
     23 CB         22.4507   -1.7031   -7.0256 C.3       4 UNK        -0.1981 
     24 N          23.3894    0.0598   -5.5955 N.am      4 UNK        -0.4209 
     25 C          24.0109    1.1907   -5.2308 C.2       3 UNK         0.4942 
     26 O          24.6244    1.9223   -6.0067 O.2       3 UNK        -0.5208 
     27 CA         23.9758    1.5433   -3.7351 C.3       3 UNK         0.0250 
     28 CB         22.7327    2.3875   -3.4111 C.3       3 UNK        -0.1990 
     29 N          24.0220    0.3756   -2.8475 N.am      3 UNK        -0.4232 
     30 C          25.0015   -0.5386   -2.8270 C.2       2 UNK         0.4993 
     31 O          25.9612   -0.5519   -3.6059 O.2       2 UNK        -0.5286 
     32 CA         24.8757   -1.6483   -1.7835 C.3       2 UNK         0.0209 
     33 CB         24.2205   -2.9010   -2.3900 C.3       2 UNK        -0.1931 
     34 N          26.2230   -1.9671   -1.3328 N.am      2 UNK        -0.4546 
     35 C          26.5740   -2.2954   -0.0856 C.2       1 UNK         0.5154 
     36 O          25.7621   -2.4407    0.8318 O.2       1 UNK        -0.5181 
     37 C          27.9004   -0.8230   -6.8238 C.2       5 UNK         0.5014 
     38 O          28.7448   -0.6883   -7.7102 O.2       5 UNK        -0.5248 
     39 N          27.7192    0.0557   -5.8249 N.am      6 UNK        -0.4434 
     40 CA         28.4772    1.2991   -5.6670 C.3       6 UNK         0.0363 
     41 CB         28.0349    2.0178   -4.3845 C.3       6 UNK        -0.1936 
     42 C          28.3716    2.2361   -6.8828 C.2       6 UNK         0.5081 
     43 O          29.3664    2.8696   -7.2347 O.2       6 UNK        -0.5248 
     44 N          27.1928    2.2795   -7.5172 N.am      7 UNK        -0.4718 
     45 CA         26.9655    2.9651   -8.7858 C.3       7 UNK         0.0273 
     46 CB         25.4627    3.2376   -8.9659 C.3       7 UNK        -0.1935 
     47 C          27.5324    2.1750   -9.9767 C.2       7 UNK         0.5018 
     48 O          28.3497    2.7185  -10.7196 O.2       7 UNK        -0.5186 
     49 N          27.0849    0.9213  -10.1506 N.am      8 UNK        -0.4240 
     50 CA         27.3600    0.0936  -11.3315 C.3       8 UNK         0.0235 
     51 CB         26.5023   -1.1813  -11.2913 C.3       8 UNK        -0.2000 
     52 C          28.8392   -0.2678  -11.5290 C.2       8 UNK         0.4941 
     53 O          29.3237   -0.2057  -12.6597 O.2       8 UNK        -0.5273 
     54 N          29.5299   -0.6309  -10.4410 N.am      9 UNK        -0.4262 
     55 CA         30.9567   -0.9652  -10.4505 C.3       9 UNK         0.0264 
     56 CB         31.2088   -2.1044   -9.4474 C.3       9 UNK        -0.1955 
     57 C          31.8479    0.2548  -10.1508 C.2       9 UNK         0.5031 
     58 O          33.0714    0.1174  -10.1832 O.2       9 UNK        -0.5390 
     59 N          31.2327    1.4138   -9.8615 N.am      10 UNK        -0.4204 
     60 CA         31.8517    2.6903   -9.4786 C.3       10 UNK         0.0237 
     61 CB         32.6910    3.2698  -10.6377 C.3       10 UNK        -0.1985 
     62 C          32.6303    2.6251   -8.1471 C.2       10 UNK         0.4970 
     63 O          33.5533    3.4152   -7.9394 O.2       10 UNK        -0.4914 
     64 N          32.2424    1.6928   -7.2680 N.am      11 UNK        -0.4285 
     65 CA         32.8368    1.4798   -5.9402 C.3       11 UNK         0.1007 
     66 C          32.4022    2.5252   -4.8732 C.2       11 UNK         0.5703 
     67 N          31.3902    3.3502   -5.1178 N.am      11 UNK        -0.7361 
     68 O          33.0080    2.5989   -3.8070 O.2       11 UNK        -0.4986 
     69 C69        32.6078    0.0296   -5.4378 C.3       12 UNK        -0.0947 
     70 S70        33.2558   -1.2107   -6.6072 S.3       12 UNK        -0.2240 
     71 C71        33.7389   -2.5686   -5.4999 C.3       12 UNK         0.0194 
     72 H72        28.7763   -6.0288    1.9552 H         1 UNK         0.0906 
     73 H73        27.5019   -6.8541    1.0555 H         1 UNK         0.0906 
     74 H74        29.1580   -6.8547    0.4434 H         1 UNK         0.0906 
     75 H75        28.6461   -3.8217    1.7256 H         1 UNK         0.3140 
     76 H76        28.2952   -1.7776    1.0158 H         1 UNK         0.1085 
     77 H77        28.8548   -2.7784   -1.8257 H         1 UNK         0.0836 
     78 H78        28.7791   -1.1058   -1.3452 H         1 UNK         0.0836 
     79 H79        32.3834   -3.8406   -0.7845 H         1 UNK         0.0731 
     80 H80        30.7681   -4.4832   -0.7806 H         1 UNK         0.0731 
     81 H81        33.2486   -2.5945   -2.8185 H         1 UNK         0.1312 
     82 H82        31.6087   -3.9140   -6.5558 H         1 UNK         0.1406 
     83 H83        29.5948   -4.8337   -2.8814 H         1 UNK         0.1631 
     84 H84        28.6223   -5.5759   -4.9053 H         1 UNK         0.0717 
     85 H85        29.8678   -6.0854   -6.0169 H         1 UNK         0.0717 
     86 H86        26.5920   -3.8470   -5.7244 H         1 UNK         0.0934 
     87 H87        27.8615   -2.8555   -5.0543 H         1 UNK         0.0934 
     88 H88        26.9281   -2.3649   -7.9155 H         1 UNK         0.0739 
     89 H89        25.1884   -1.8611   -5.6812 H         1 UNK         0.3093 
     90 H90        23.0228    0.2755   -7.6241 H         1 UNK         0.0818 
     91 H91        21.4255   -1.4169   -6.7899 H         1 UNK         0.0819 
     92 H92        22.4425   -2.1269   -8.0309 H         1 UNK         0.0819 
     93 H93        22.7430   -2.4986   -6.3391 H         1 UNK         0.0819 
     94 H94        22.9037   -0.4671   -4.8848 H         1 UNK         0.3041 
     95 H95        24.8582    2.1482   -3.5208 H         1 UNK         0.0784 
     96 H96        22.6872    3.2735   -4.0463 H         1 UNK         0.0793 
     97 H97        21.8098    1.8274   -3.5670 H         1 UNK         0.0793 
     98 H98        22.7458    2.7342   -2.3776 H         1 UNK         0.0793 
     99 H99        23.2685    0.2945   -2.1793 H         1 UNK         0.3024 
    100 H100       24.2763   -1.2858   -0.9449 H         1 UNK         0.1171 
    101 H101       23.2114   -2.6858   -2.7437 H         1 UNK         0.0786 
    102 H102       24.1417   -3.6997   -1.6521 H         1 UNK         0.0786 
    103 H103       24.7917   -3.2864   -3.2356 H         1 UNK         0.0786 
    104 H104       26.9362   -1.8226   -2.0356 H         1 UNK         0.2977 
    105 H105       27.0121   -0.1390   -5.1185 H         1 UNK         0.3127 
    106 H106       29.5264    1.0230   -5.5569 H         1 UNK         0.0770 
    107 H107       26.9939    2.3329   -4.4432 H         1 UNK         0.0814 
    108 H108       28.6351    2.9114   -4.2108 H         1 UNK         0.0814 
    109 H109       28.1451    1.3769   -3.5095 H         1 UNK         0.0814 
    110 H110       26.4038    1.7816   -7.1182 H         1 UNK         0.2983 
    111 H111       27.4778    3.9296   -8.7541 H         1 UNK         0.0947 
    112 H112       25.2665    3.7414   -9.9132 H         1 UNK         0.0806 
    113 H113       25.0820    3.8798   -8.1715 H         1 UNK         0.0806 
    114 H114       24.8766    2.3178   -8.9550 H         1 UNK         0.0806 
    115 H115       26.4257    0.5331   -9.4771 H         1 UNK         0.3000 
    116 H116       27.0522    0.6731  -12.2046 H         1 UNK         0.0850 
    117 H117       26.6702   -1.7955  -12.1771 H         1 UNK         0.0810 
    118 H118       25.4390   -0.9431  -11.2599 H         1 UNK         0.0810 
    119 H119       26.7335   -1.7946  -10.4195 H         1 UNK         0.0810 
    120 H120       29.0715   -0.6480   -9.5299 H         1 UNK         0.3040 
    121 H121       31.2421   -1.3310  -11.4390 H         1 UNK         0.0766 
    122 H122       32.2542   -2.4152   -9.4611 H         1 UNK         0.0812 
    123 H123       30.6065   -2.9819   -9.6823 H         1 UNK         0.0812 
    124 H124       30.9740   -1.8053   -8.4262 H         1 UNK         0.0812 
    125 H125       30.2214    1.4225   -9.8948 H         1 UNK         0.3205 
    126 H126       31.0240    3.3793   -9.3048 H         1 UNK         0.0754 
    127 H127       33.0183    4.2859  -10.4144 H         1 UNK         0.0769 
    128 H128       32.1132    3.3135  -11.5610 H         1 UNK         0.0769 
    129 H129       33.5852    2.6756  -10.8280 H         1 UNK         0.0769 
    130 H130       31.4661    1.0964   -7.5105 H         1 UNK         0.2981 
    131 H131       33.9154    1.6098   -6.0481 H         1 UNK         0.0541 
    132 H132       30.8627    3.2818   -5.9814 H         1 UNK         0.3459 
    133 H133       31.1359    4.0338   -4.4235 H         1 UNK         0.3459 
    134 H134       31.5466   -0.1696   -5.2819 H         1 UNK         0.0612 
    135 H135       33.0940   -0.1175   -4.4716 H         1 UNK         0.0612 
    136 H136       34.2248   -3.3452   -6.0919 H         1 UNK         0.0624 
    137 H137       34.4896   -2.2041   -4.7970 H         1 UNK         0.0624 
@<TRIPOS>BOND
     1    1    2 1    
     2    1   72 1    
     3    1   73 1    
     4    1   74 1    
     5    2    3 2    
     6    2    4 am   BACKBONE|DICT|INTERRES
     7    4    5 1    
     8    4   75 1    
     9    5    6 1    
    10    5   35 1    
    11    5   76 1    
    12    6    7 1    
    13    6   77 1    
    14    6   78 1    
    15    7    8 1    
    16    8    9 1    
    17    8   79 1    
    18    8   80 1    
    19    9   10 ar   
    20    9   14 ar   
    21   10   11 ar   
    22   10   81 1    
    23   11   12 ar   
    24   11   71 1    
    25   12   13 ar   
    26   12   82 1    
    27   13   14 ar   
    28   13   15 1    
    29   14   83 1    
    30   15   16 1    
    31   15   84 1    
    32   15   85 1    
    33   16   17 1    
    34   17   18 1    
    35   17   86 1    
    36   17   87 1    
    37   18   19 1    
    38   18   37 1    
    39   18   88 1    
    40   19   20 am   BACKBONE|DICT|INTERRES
    41   19   89 1    
    42   20   21 2    
    43   20   22 1    
    44   22   23 1    
    45   22   24 1    
    46   22   90 1    
    47   23   91 1    
    48   23   92 1    
    49   23   93 1    
    50   24   25 am   BACKBONE|DICT|INTERRES
    51   24   94 1    
    52   25   26 2    
    53   25   27 1    
    54   27   28 1    
    55   27   29 1    
    56   27   95 1    
    57   28   96 1    
    58   28   97 1    
    59   28   98 1    
    60   29   30 am   BACKBONE|DICT|INTERRES
    61   29   99 1    
    62   30   31 2    
    63   30   32 1    
    64   32   33 1    
    65   32   34 1    
    66   32  100 1    
    67   33  101 1    
    68   33  102 1    
    69   33  103 1    
    70   34   35 am   BACKBONE|DICT|INTERRES
    71   34  104 1    
    72   35   36 2    
    73   37   38 2    
    74   37   39 am   BACKBONE|DICT|INTERRES
    75   39   40 1    
    76   39  105 1    
    77   40   41 1    
    78   40   42 1    
    79   40  106 1    
    80   41  107 1    
    81   41  108 1    
    82   41  109 1    
    83   42   43 2    
    84   42   44 am   BACKBONE|DICT|INTERRES
    85   44   45 1    
    86   44  110 1    
    87   45   46 1    
    88   45   47 1    
    89   45  111 1    
    90   46  112 1    
    91   46  113 1    
    92   46  114 1    
    93   47   48 2    
    94   47   49 am   BACKBONE|DICT|INTERRES
    95   49   50 1    
    96   49  115 1    
    97   50   51 1    
    98   50   52 1    
    99   50  116 1    
   100   51  117 1    
   101   51  118 1    
   102   51  119 1    
   103   52   53 2    
   104   52   54 am   BACKBONE|DICT|INTERRES
   105   54   55 1    
   106   54  120 1    
   107   55   56 1    
   108   55   57 1    
   109   55  121 1    
   110   56  122 1    
   111   56  123 1    
   112   56  124 1    
   113   57   58 2    
   114   57   59 am   BACKBONE|DICT|INTERRES
   115   59   60 1    
   116   59  125 1    
   117   60   61 1    
   118   60   62 1    
   119   60  126 1    
   120   61  127 1    
   121   61  128 1    
   122   61  129 1    
   123   62   63 2    
   124   62   64 am   BACKBONE|DICT|INTERRES
   125   64   65 1    
   126   64  130 1    
   127   65   66 1    
   128   65   69 1    
   129   65  131 1    
   130   66   67 am   BACKBONE|DICT|INTERRES
   131   66   68 2    
   132   67  132 1    
   133   67  133 1    
   134   69   70 1    
   135   69  134 1    
   136   69  135 1    
   137   70   71 1    
   138   71  136 1    
   139   71  137 1    
@<TRIPOS>SUBSTRUCTURE
     1 UNK         1 GROUP             0       ****    0 ROOT    
