@<TRIPOS>MOLECULE
3R137
137   139    1
SMALL
USER_CHARGES


@<TRIPOS>ATOM
      1 CA         28.2232   -2.0491    2.5060 C.3       0 UNK        -0.2020 
      2 C          28.2078   -1.7709    1.0108 C.2       0 UNK         0.4855 
      3 O          28.1991   -0.6094    0.6024 O.2       0 UNK        -0.5197 
      4 N          28.1855   -2.8257    0.1867 N.am      1 UNK        -0.4892 
      5 CA         28.2104   -2.7830   -1.2835 C.3       1 UNK         0.0835 
      6 C6         28.7688   -4.1117   -1.8648 C.3       12 UNK        -0.0855 
      7 S7         30.4793   -4.4661   -1.3183 S.3       12 UNK        -0.2931 
      8 C8         31.3996   -4.5463   -2.8932 C.3       12 UNK         0.0378 
      9 C9         31.9281   -3.1892   -3.3449 C.ar      12 UNK        -0.0802 
     10 C10        33.3003   -2.9920   -3.5376 C.ar      12 UNK        -0.0944 
     11 C11        33.7770   -1.7767   -4.0431 C.ar      12 UNK        -0.0787 
     12 C12        32.8841   -0.7271   -4.2773 C.ar      12 UNK        -0.0862 
     13 C13        31.5140   -0.9108   -4.0868 C.ar      12 UNK        -0.0733 
     14 C14        31.0446   -2.1498   -3.6459 C.ar      12 UNK        -0.0832 
     15 C15        30.5338    0.1838   -4.4722 C.3       12 UNK         0.0240 
     16 S16        29.3165    0.5442   -3.1574 S.3       12 UNK        -0.2522 
     17 C17        28.1382    1.6892   -3.9655 C.3       12 UNK        -0.0967 
     18 CA         27.7487    1.2898   -5.4087 C.3       5 UNK         0.0660 
     19 N          27.2431   -0.0775   -5.5080 N.am      5 UNK        -0.4015 
     20 C          27.3680   -0.8467   -6.5975 C.2       4 UNK         0.4946 
     21 O          27.9421   -0.4821   -7.6242 O.2       4 UNK        -0.5353 
     22 CA         26.7238   -2.2439   -6.5359 C.3       4 UNK         0.0277 
     23 CB         27.7258   -3.2795   -6.0045 C.3       4 UNK        -0.1981 
     24 N          25.5156   -2.2716   -5.7061 N.am      4 UNK        -0.4209 
     25 C          24.3713   -1.6559   -6.0383 C.2       3 UNK         0.4942 
     26 O          24.2058   -1.0533   -7.0976 O.2       3 UNK        -0.5208 
     27 CA         23.2356   -1.6624   -5.0008 C.3       3 UNK         0.0250 
     28 CB         22.3216   -2.8790   -5.2145 C.3       3 UNK        -0.1990 
     29 N          23.6907   -1.6342   -3.6079 N.am      3 UNK        -0.4232 
     30 C          24.4910   -0.7086   -3.0591 C.2       2 UNK         0.4993 
     31 O          24.9709    0.2383   -3.6847 O.2       2 UNK        -0.5286 
     32 CA         24.8405   -0.8768   -1.5698 C.3       2 UNK         0.0209 
     33 CB         23.8551   -1.7831   -0.7977 C.3       2 UNK        -0.1931 
     34 N          26.2150   -1.3434   -1.3522 N.am      2 UNK        -0.4546 
     35 C          26.8233   -2.4195   -1.8739 C.2       1 UNK         0.5154 
     36 O          26.3221   -3.1249   -2.7534 O.2       1 UNK        -0.5181 
     37 C          26.7784    2.2852   -6.0591 C.2       5 UNK         0.5014 
     38 O          27.2400    3.2099   -6.7315 O.2       5 UNK        -0.5248 
     39 N          25.4657    2.0422   -5.9176 N.am      6 UNK        -0.4434 
     40 CA         24.4079    2.7460   -6.6502 C.3       6 UNK         0.0363 
     41 CB         23.0300    2.2687   -6.1677 C.3       6 UNK        -0.1936 
     42 C          24.5424    2.5815   -8.1758 C.2       6 UNK         0.5081 
     43 O          24.3437    3.5498   -8.9097 O.2       6 UNK        -0.5248 
     44 N          24.9594    1.3890   -8.6249 N.am      7 UNK        -0.4718 
     45 CA         25.3417    1.0693  -10.0043 C.3       7 UNK         0.0273 
     46 CB         25.2587   -0.4558  -10.2015 C.3       7 UNK        -0.1935 
     47 C          26.7241    1.6415  -10.3978 C.2       7 UNK         0.5018 
     48 O          27.5564    0.9176  -10.9462 O.2       7 UNK        -0.5186 
     49 N          26.9258    2.9403  -10.1346 N.am      8 UNK        -0.4240 
     50 CA         28.0802    3.7695  -10.4963 C.3       8 UNK         0.0235 
     51 CB         28.1183    3.9911  -12.0243 C.3       8 UNK        -0.2000 
     52 C          29.4244    3.2686   -9.9289 C.2       8 UNK         0.4941 
     53 O          30.4069    3.1943  -10.6701 O.2       8 UNK        -0.5273 
     54 N          29.4523    2.9777   -8.6179 N.am      9 UNK        -0.4262 
     55 CA         30.6444    2.6343   -7.8251 C.3       9 UNK         0.0264 
     56 CB         31.5654    3.8662   -7.6851 C.3       9 UNK        -0.1955 
     57 C          31.3973    1.3813   -8.3231 C.2       9 UNK         0.5031 
     58 O          32.6303    1.3823   -8.3444 O.2       9 UNK        -0.5390 
     59 N          30.6597    0.3378   -8.7254 N.am      10 UNK        -0.4204 
     60 CA         31.2329   -0.9060   -9.2383 C.3       10 UNK         0.0237 
     61 CB         30.2028   -1.5967  -10.1479 C.3       10 UNK        -0.1985 
     62 C          31.6397   -1.8271   -8.0797 C.2       10 UNK         0.4970 
     63 O          30.8025   -2.1155   -7.2247 O.2       10 UNK        -0.4914 
     64 N          32.8920   -2.3026   -8.0894 N.am      11 UNK        -0.4285 
     65 CA         33.3933   -3.2917   -7.1174 C.3       11 UNK         0.1007 
     66 C          33.0241   -4.7654   -7.4571 C.2       11 UNK         0.5703 
     67 N          32.4361   -5.0594   -8.6113 N.am      11 UNK        -0.7361 
     68 O          33.2668   -5.6614   -6.6521 O.2       11 UNK        -0.4986 
     69 C69        34.9146   -3.1432   -6.8255 C.3       12 UNK        -0.0947 
     70 S70        35.4127   -1.4813   -6.2514 S.3       12 UNK        -0.2240 
     71 C71        35.2374   -1.6213   -4.4376 C.3       12 UNK         0.0194 
     72 H72        28.2299   -3.1172    2.7227 H         1 UNK         0.0906 
     73 H73        29.1092   -1.6059    2.9600 H         1 UNK         0.0906 
     74 H74        27.3436   -1.6123    2.9780 H         1 UNK         0.0906 
     75 H75        28.1802   -3.7549    0.5835 H         1 UNK         0.3140 
     76 H76        28.8852   -1.9774   -1.5773 H         1 UNK         0.1085 
     77 H77        28.1379   -4.9491   -1.5607 H         1 UNK         0.0836 
     78 H78        28.7339   -4.1070   -2.9546 H         1 UNK         0.0836 
     79 H79        30.7754   -4.9765   -3.6776 H         1 UNK         0.0731 
     80 H80        32.2283   -5.2432   -2.7587 H         1 UNK         0.0731 
     81 H81        33.9907   -3.8051   -3.3590 H         1 UNK         0.1312 
     82 H82        33.2532    0.2069   -4.6790 H         1 UNK         0.1406 
     83 H83        29.9815   -2.3032   -3.5617 H         1 UNK         0.1631 
     84 H84        30.0376   -0.1711   -5.3734 H         1 UNK         0.0717 
     85 H85        31.0556    1.1050   -4.7351 H         1 UNK         0.0717 
     86 H86        27.2498    1.7513   -3.3340 H         1 UNK         0.0934 
     87 H87        28.5828    2.6864   -3.9586 H         1 UNK         0.0934 
     88 H88        28.6443    1.3510   -6.0173 H         1 UNK         0.0739 
     89 H89        26.6917   -0.4057   -4.7253 H         1 UNK         0.3093 
     90 H90        26.4446   -2.5271   -7.5530 H         1 UNK         0.0818 
     91 H91        28.0979   -3.0087   -5.0169 H         1 UNK         0.0819 
     92 H92        27.2790   -4.2714   -5.9367 H         1 UNK         0.0819 
     93 H93        28.5873   -3.3595   -6.6674 H         1 UNK         0.0819 
     94 H94        25.5854   -2.7220   -4.7998 H         1 UNK         0.3041 
     95 H95        22.6423   -0.7609   -5.1613 H         1 UNK         0.0784 
     96 H96        21.9496   -2.9119   -6.2398 H         1 UNK         0.0793 
     97 H97        22.8468   -3.8167   -5.0279 H         1 UNK         0.0793 
     98 H98        21.4518   -2.8435   -4.5582 H         1 UNK         0.0793 
     99 H99        23.3804   -2.3927   -3.0181 H         1 UNK         0.3024 
    100 H100       24.7781    0.1228   -1.1363 H         1 UNK         0.1171 
    101 H101       22.8239   -1.4522   -0.9301 H         1 UNK         0.0786 
    102 H102       24.0610   -1.7546    0.2725 H         1 UNK         0.0786 
    103 H103       23.9164   -2.8259   -1.1115 H         1 UNK         0.0786 
    104 H104       26.7535   -0.8237   -0.6632 H         1 UNK         0.2977 
    105 H105       25.1784    1.2983   -5.2865 H         1 UNK         0.3127 
    106 H106       24.5024    3.8092   -6.4198 H         1 UNK         0.0770 
    107 H107       22.8487    1.2276   -6.4330 H         1 UNK         0.0814 
    108 H108       22.2350    2.8605   -6.6232 H         1 UNK         0.0814 
    109 H109       22.9288    2.3647   -5.0865 H         1 UNK         0.0814 
    110 H110       25.0434    0.6304   -7.9562 H         1 UNK         0.2983 
    111 H111       24.6117    1.5278  -10.6748 H         1 UNK         0.0947 
    112 H112       25.4614   -0.7306  -11.2373 H         1 UNK         0.0806 
    113 H113       24.2671   -0.8355   -9.9546 H         1 UNK         0.0806 
    114 H114       25.9827   -0.9795   -9.5764 H         1 UNK         0.0806 
    115 H115       26.1644    3.4245   -9.6674 H         1 UNK         0.3000 
    116 H116       27.9076    4.7419  -10.0324 H         1 UNK         0.0850 
    117 H117       28.9004    4.7002  -12.2983 H         1 UNK         0.0810 
    118 H118       27.1747    4.3953  -12.3909 H         1 UNK         0.0810 
    119 H119       28.3176    3.0633  -12.5618 H         1 UNK         0.0810 
    120 H120       28.5861    3.0671   -8.0903 H         1 UNK         0.3040 
    121 H121       30.3038    2.4014   -6.8202 H         1 UNK         0.0766 
    122 H122       31.0207    4.7273   -7.2982 H         1 UNK         0.0812 
    123 H123       32.0094    4.1506   -8.6397 H         1 UNK         0.0812 
    124 H124       32.3847    3.6667   -6.9932 H         1 UNK         0.0812 
    125 H125       29.6522    0.3474   -8.5983 H         1 UNK         0.3205 
    126 H126       32.1123   -0.6729   -9.8428 H         1 UNK         0.0754 
    127 H127       30.6088   -2.5138  -10.5760 H         1 UNK         0.0769 
    128 H128       29.9111   -0.9505  -10.9764 H         1 UNK         0.0769 
    129 H129       29.2965   -1.8630   -9.6017 H         1 UNK         0.0769 
    130 H130       33.5346   -2.0187   -8.8139 H         1 UNK         0.2981 
    131 H131       32.8719   -3.1057   -6.1816 H         1 UNK         0.0541 
    132 H132       32.2269   -4.3362   -9.2794 H         1 UNK         0.3459 
    133 H133       32.1996   -6.0180   -8.8129 H         1 UNK         0.3459 
    134 H134       35.2347   -3.8685   -6.0751 H         1 UNK         0.0612 
    135 H135       35.4893   -3.3692   -7.7252 H         1 UNK         0.0612 
    136 H136       35.6433   -0.7230   -3.9707 H         1 UNK         0.0624 
    137 H137       35.8368   -2.4583   -4.0763 H         1 UNK         0.0624 
@<TRIPOS>BOND
     1    1    2 1    
     2    1   72 1    
     3    1   73 1    
     4    1   74 1    
     5    2    3 2    
     6    2    4 am   BACKBONE|DICT|INTERRES
     7    4    5 1    
     8    4   75 1    
     9    5    6 1    
    10    5   35 1    
    11    5   76 1    
    12    6    7 1    
    13    6   77 1    
    14    6   78 1    
    15    7    8 1    
    16    8    9 1    
    17    8   79 1    
    18    8   80 1    
    19    9   10 ar   
    20    9   14 ar   
    21   10   11 ar   
    22   10   81 1    
    23   11   12 ar   
    24   11   71 1    
    25   12   13 ar   
    26   12   82 1    
    27   13   14 ar   
    28   13   15 1    
    29   14   83 1    
    30   15   16 1    
    31   15   84 1    
    32   15   85 1    
    33   16   17 1    
    34   17   18 1    
    35   17   86 1    
    36   17   87 1    
    37   18   19 1    
    38   18   37 1    
    39   18   88 1    
    40   19   20 am   BACKBONE|DICT|INTERRES
    41   19   89 1    
    42   20   21 2    
    43   20   22 1    
    44   22   23 1    
    45   22   24 1    
    46   22   90 1    
    47   23   91 1    
    48   23   92 1    
    49   23   93 1    
    50   24   25 am   BACKBONE|DICT|INTERRES
    51   24   94 1    
    52   25   26 2    
    53   25   27 1    
    54   27   28 1    
    55   27   29 1    
    56   27   95 1    
    57   28   96 1    
    58   28   97 1    
    59   28   98 1    
    60   29   30 am   BACKBONE|DICT|INTERRES
    61   29   99 1    
    62   30   31 2    
    63   30   32 1    
    64   32   33 1    
    65   32   34 1    
    66   32  100 1    
    67   33  101 1    
    68   33  102 1    
    69   33  103 1    
    70   34   35 am   BACKBONE|DICT|INTERRES
    71   34  104 1    
    72   35   36 2    
    73   37   38 2    
    74   37   39 am   BACKBONE|DICT|INTERRES
    75   39   40 1    
    76   39  105 1    
    77   40   41 1    
    78   40   42 1    
    79   40  106 1    
    80   41  107 1    
    81   41  108 1    
    82   41  109 1    
    83   42   43 2    
    84   42   44 am   BACKBONE|DICT|INTERRES
    85   44   45 1    
    86   44  110 1    
    87   45   46 1    
    88   45   47 1    
    89   45  111 1    
    90   46  112 1    
    91   46  113 1    
    92   46  114 1    
    93   47   48 2    
    94   47   49 am   BACKBONE|DICT|INTERRES
    95   49   50 1    
    96   49  115 1    
    97   50   51 1    
    98   50   52 1    
    99   50  116 1    
   100   51  117 1    
   101   51  118 1    
   102   51  119 1    
   103   52   53 2    
   104   52   54 am   BACKBONE|DICT|INTERRES
   105   54   55 1    
   106   54  120 1    
   107   55   56 1    
   108   55   57 1    
   109   55  121 1    
   110   56  122 1    
   111   56  123 1    
   112   56  124 1    
   113   57   58 2    
   114   57   59 am   BACKBONE|DICT|INTERRES
   115   59   60 1    
   116   59  125 1    
   117   60   61 1    
   118   60   62 1    
   119   60  126 1    
   120   61  127 1    
   121   61  128 1    
   122   61  129 1    
   123   62   63 2    
   124   62   64 am   BACKBONE|DICT|INTERRES
   125   64   65 1    
   126   64  130 1    
   127   65   66 1    
   128   65   69 1    
   129   65  131 1    
   130   66   67 am   BACKBONE|DICT|INTERRES
   131   66   68 2    
   132   67  132 1    
   133   67  133 1    
   134   69   70 1    
   135   69  134 1    
   136   69  135 1    
   137   70   71 1    
   138   71  136 1    
   139   71  137 1    
@<TRIPOS>SUBSTRUCTURE
     1 UNK         1 GROUP             0       ****    0 ROOT    
