@<TRIPOS>MOLECULE
3R137
137   139    1
SMALL
USER_CHARGES


@<TRIPOS>ATOM
      1 CA         23.4421   -3.5247   -7.6723 C.3       0 UNK        -0.2020 
      2 C          23.8447   -4.4886   -6.5678 C.2       0 UNK         0.4855 
      3 O          23.0470   -5.3432   -6.1828 O.2       0 UNK        -0.5197 
      4 N          25.0678   -4.3548   -6.0369 N.am      1 UNK        -0.4892 
      5 CA         25.6658   -5.2158   -5.0051 C.3       1 UNK         0.0835 
      6 C6         27.2155   -5.1938   -5.0915 C.3       12 UNK        -0.0855 
      7 S7         27.9900   -3.5553   -4.8163 S.3       12 UNK        -0.2931 
      8 C8         29.0902   -3.9662   -3.4221 C.3       12 UNK         0.0378 
      9 C9         30.0432   -2.8272   -3.0996 C.ar      12 UNK        -0.0802 
     10 C10        31.3300   -2.8083   -3.6459 C.ar      12 UNK        -0.0944 
     11 C11        32.2128   -1.7653   -3.3486 C.ar      12 UNK        -0.0787 
     12 C12        31.7932   -0.7238   -2.5169 C.ar      12 UNK        -0.0862 
     13 C13        30.5080   -0.7315   -1.9665 C.ar      12 UNK        -0.0733 
     14 C14        29.6451   -1.7978   -2.2434 C.ar      12 UNK        -0.0832 
     15 C15        30.0442    0.4245   -1.0925 C.3       12 UNK         0.0240 
     16 S16        28.5562    1.2329   -1.7634 S.3       12 UNK        -0.2522 
     17 C17        29.1215    1.8135   -3.4034 C.3       12 UNK        -0.0967 
     18 CA         28.8421    0.8005   -4.5586 C.3       5 UNK         0.0660 
     19 N          27.4693    0.2896   -4.5599 N.am      5 UNK        -0.4015 
     20 C          26.3602    0.9859   -4.8471 C.2       4 UNK         0.4946 
     21 O          26.3560    2.1598   -5.2210 O.2       4 UNK        -0.5353 
     22 CA         25.0262    0.2436   -4.6648 C.3       4 UNK         0.0277 
     23 CB         24.6820   -0.5670   -5.9227 C.3       4 UNK        -0.1981 
     24 N          25.0435   -0.6440   -3.4978 N.am      4 UNK        -0.4209 
     25 C          24.9929   -0.2211   -2.2254 C.2       3 UNK         0.4942 
     26 O          24.8396    0.9594   -1.9072 O.2       3 UNK        -0.5208 
     27 CA         25.1537   -1.2969   -1.1302 C.3       3 UNK         0.0250 
     28 CB         24.6009   -0.8482    0.2396 C.3       3 UNK        -0.1990 
     29 N          24.6134   -2.6095   -1.5093 N.am      3 UNK        -0.4232 
     30 C          23.3435   -2.9185   -1.8105 C.2       2 UNK         0.4993 
     31 O          22.4153   -2.1081   -1.8018 O.2       2 UNK        -0.5286 
     32 CA         23.0882   -4.3801   -2.2297 C.3       2 UNK         0.0209 
     33 CB         21.5918   -4.6885   -2.4265 C.3       2 UNK        -0.1931 
     34 N          23.8023   -4.7180   -3.4639 N.am      2 UNK        -0.4546 
     35 C          25.1144   -4.9573   -3.5793 C.2       1 UNK         0.5154 
     36 O          25.8717   -4.9544   -2.6063 O.2       1 UNK        -0.5181 
     37 C          29.2330    1.3058   -5.9639 C.2       5 UNK         0.5014 
     38 O          28.9970    0.5917   -6.9419 O.2       5 UNK        -0.5248 
     39 N          29.7856    2.5247   -6.0511 N.am      6 UNK        -0.4434 
     40 CA         30.2430    3.1947   -7.2738 C.3       6 UNK         0.0363 
     41 CB         30.8357    4.5601   -6.8886 C.3       6 UNK        -0.1936 
     42 C          29.1765    3.3751   -8.3738 C.2       6 UNK         0.5081 
     43 O          29.5404    3.6301   -9.5220 O.2       6 UNK        -0.5248 
     44 N          27.8880    3.2529   -8.0232 N.am      7 UNK        -0.4718 
     45 CA         26.7706    3.2970   -8.9678 C.3       7 UNK         0.0273 
     46 CB         25.4711    3.5901   -8.2001 C.3       7 UNK        -0.1935 
     47 C          26.6195    2.0108   -9.8026 C.2       7 UNK         0.5018 
     48 O          25.9124    2.0508  -10.8109 O.2       7 UNK        -0.5186 
     49 N          27.2484    0.9036   -9.3795 N.am      8 UNK        -0.4240 
     50 CA         27.1489   -0.4003  -10.0408 C.3       8 UNK         0.0235 
     51 CB         26.1932   -1.3059   -9.2484 C.3       8 UNK        -0.2000 
     52 C          28.5129   -1.0789  -10.2132 C.2       8 UNK         0.4941 
     53 O          28.7825   -1.6122  -11.2907 O.2       8 UNK        -0.5273 
     54 N          29.3382   -1.0715   -9.1611 N.am      9 UNK        -0.4262 
     55 CA         30.6687   -1.6735   -9.1432 C.3       9 UNK         0.0264 
     56 CB         30.9049   -2.2715   -7.7458 C.3       9 UNK        -0.1955 
     57 C          31.7312   -0.6143   -9.4667 C.2       9 UNK         0.5031 
     58 O          31.4847    0.5827   -9.2992 O.2       9 UNK        -0.5390 
     59 N          32.9262   -1.0641   -9.8712 N.am      10 UNK        -0.4204 
     60 CA         34.1007   -0.2222  -10.1398 C.3       10 UNK         0.0237 
     61 CB         35.0634   -0.9891  -11.0665 C.3       10 UNK        -0.1985 
     62 C          34.7804    0.2568   -8.8377 C.2       10 UNK         0.4970 
     63 O          35.9781    0.0383   -8.6457 O.2       10 UNK        -0.4914 
     64 N          33.9835    0.8717   -7.9598 N.am      11 UNK        -0.4285 
     65 CA         34.3326    1.2739   -6.5891 C.3       11 UNK         0.1007 
     66 C          34.3114    2.8153   -6.3841 C.2       11 UNK         0.5703 
     67 N          34.1587    3.6224   -7.4279 N.am      11 UNK        -0.7361 
     68 O          34.4562    3.2931   -5.2616 O.2       11 UNK        -0.4986 
     69 C69        33.4416    0.5304   -5.5552 C.3       12 UNK        -0.0947 
     70 S70        33.6594   -1.2797   -5.6575 S.3       12 UNK        -0.2240 
     71 C71        33.6257   -1.7789   -3.9117 C.3       12 UNK         0.0194 
     72 H72        22.5682   -2.9488   -7.3691 H         1 UNK         0.0906 
     73 H73        24.2411   -2.8276   -7.9141 H         1 UNK         0.0906 
     74 H74        23.1894   -4.0764   -8.5773 H         1 UNK         0.0906 
     75 H75        25.6827   -3.6310   -6.3802 H         1 UNK         0.3140 
     76 H76        25.3642   -6.2410   -5.2329 H         1 UNK         0.1085 
     77 H77        27.6336   -5.9270   -4.3992 H         1 UNK         0.0836 
     78 H78        27.5238   -5.5362   -6.0806 H         1 UNK         0.0836 
     79 H79        28.4899   -4.2105   -2.5444 H         1 UNK         0.0731 
     80 H80        29.6611   -4.8644   -3.6632 H         1 UNK         0.0731 
     81 H81        31.6481   -3.6069   -4.3023 H         1 UNK         0.1312 
     82 H82        32.4689    0.0919   -2.2984 H         1 UNK         0.1406 
     83 H83        28.6515   -1.8080   -1.8172 H         1 UNK         0.1631 
     84 H84        30.8312    1.1710   -0.9747 H         1 UNK         0.0717 
     85 H85        29.8225    0.0483   -0.0930 H         1 UNK         0.0717 
     86 H86        28.6066    2.7578   -3.5907 H         1 UNK         0.0934 
     87 H87        30.1865    2.0450   -3.3404 H         1 UNK         0.0934 
     88 H88        29.4779   -0.0698   -4.4038 H         1 UNK         0.0739 
     89 H89        27.3731   -0.6817   -4.3061 H         1 UNK         0.3093 
     90 H90        24.2458    0.9936   -4.5177 H         1 UNK         0.0818 
     91 H91        23.7019   -1.0358   -5.8342 H         1 UNK         0.0819 
     92 H92        24.6557    0.0754   -6.8042 H         1 UNK         0.0819 
     93 H93        25.4173   -1.3492   -6.1085 H         1 UNK         0.0819 
     94 H94        25.1386   -1.6336   -3.6690 H         1 UNK         0.3041 
     95 H95        26.2292   -1.4375   -1.0139 H         1 UNK         0.0784 
     96 H96        25.1080    0.0515    0.5905 H         1 UNK         0.0793 
     97 H97        23.5352   -0.6224    0.1918 H         1 UNK         0.0793 
     98 H98        24.7480   -1.6168    0.9982 H         1 UNK         0.0793 
     99 H99        25.2939   -3.3592   -1.6085 H         1 UNK         0.3024 
    100 H100       23.4572   -5.0175   -1.4226 H         1 UNK         0.1171 
    101 H101       21.0245   -4.4693   -1.5208 H         1 UNK         0.0786 
    102 H102       21.4317   -5.7412   -2.6604 H         1 UNK         0.0786 
    103 H103       21.1599   -4.0968   -3.2348 H         1 UNK         0.0786 
    104 H104       23.2528   -4.7675   -4.3166 H         1 UNK         0.2977 
    105 H105       29.9043    3.0511   -5.1986 H         1 UNK         0.3127 
    106 H106       31.0415    2.5837   -7.6963 H         1 UNK         0.0770 
    107 H107       30.0786    5.2243   -6.4699 H         1 UNK         0.0814 
    108 H108       31.2610    5.0598   -7.7602 H         1 UNK         0.0814 
    109 H109       31.6358    4.4581   -6.1555 H         1 UNK         0.0814 
    110 H110       27.6616    3.0349   -7.0605 H         1 UNK         0.2983 
    111 H111       26.9435    4.1188   -9.6664 H         1 UNK         0.0947 
    112 H112       24.6362    3.7302   -8.8881 H         1 UNK         0.0806 
    113 H113       25.5547    4.4989   -7.6039 H         1 UNK         0.0806 
    114 H114       25.2039    2.7716   -7.5313 H         1 UNK         0.0806 
    115 H115       27.8395    0.9624   -8.5559 H         1 UNK         0.3000 
    116 H116       26.7386   -0.2786  -11.0457 H         1 UNK         0.0850 
    117 H117       26.0903   -2.2799   -9.7288 H         1 UNK         0.0810 
    118 H118       26.5545   -1.4768   -8.2341 H         1 UNK         0.0810 
    119 H119       25.1973   -0.8673   -9.1855 H         1 UNK         0.0810 
    120 H120       29.0997   -0.5314   -8.3309 H         1 UNK         0.3040 
    121 H121       30.7307   -2.4744   -9.8830 H         1 UNK         0.0766 
    122 H122       30.1426   -3.0096   -7.4949 H         1 UNK         0.0812 
    123 H123       30.8880   -1.5043   -6.9702 H         1 UNK         0.0812 
    124 H124       31.8711   -2.7736   -7.6883 H         1 UNK         0.0812 
    125 H125       33.0674   -2.0619   -9.9415 H         1 UNK         0.3205 
    126 H126       33.7720    0.6719  -10.6742 H         1 UNK         0.0754 
    127 H127       35.9260   -0.3751  -11.3296 H         1 UNK         0.0769 
    128 H128       34.5752   -1.2719  -11.9994 H         1 UNK         0.0769 
    129 H129       35.4405   -1.8977  -10.5953 H         1 UNK         0.0769 
    130 H130       33.0111    0.9960   -8.2285 H         1 UNK         0.2981 
    131 H131       35.3666    0.9896   -6.3871 H         1 UNK         0.0541 
    132 H132       34.0689    3.2454   -8.3574 H         1 UNK         0.3459 
    133 H133       34.1649    4.6194   -7.2844 H         1 UNK         0.3459 
    134 H134       32.3872    0.7622   -5.7144 H         1 UNK         0.0612 
    135 H135       33.6799    0.8542   -4.5409 H         1 UNK         0.0612 
    136 H136       34.0335   -2.7875   -3.8314 H         1 UNK         0.0624 
    137 H137       34.2889   -1.1369   -3.3298 H         1 UNK         0.0624 
@<TRIPOS>BOND
     1    1    2 1    
     2    1   72 1    
     3    1   73 1    
     4    1   74 1    
     5    2    3 2    
     6    2    4 am   BACKBONE|DICT|INTERRES
     7    4    5 1    
     8    4   75 1    
     9    5    6 1    
    10    5   35 1    
    11    5   76 1    
    12    6    7 1    
    13    6   77 1    
    14    6   78 1    
    15    7    8 1    
    16    8    9 1    
    17    8   79 1    
    18    8   80 1    
    19    9   10 ar   
    20    9   14 ar   
    21   10   11 ar   
    22   10   81 1    
    23   11   12 ar   
    24   11   71 1    
    25   12   13 ar   
    26   12   82 1    
    27   13   14 ar   
    28   13   15 1    
    29   14   83 1    
    30   15   16 1    
    31   15   84 1    
    32   15   85 1    
    33   16   17 1    
    34   17   18 1    
    35   17   86 1    
    36   17   87 1    
    37   18   19 1    
    38   18   37 1    
    39   18   88 1    
    40   19   20 am   BACKBONE|DICT|INTERRES
    41   19   89 1    
    42   20   21 2    
    43   20   22 1    
    44   22   23 1    
    45   22   24 1    
    46   22   90 1    
    47   23   91 1    
    48   23   92 1    
    49   23   93 1    
    50   24   25 am   BACKBONE|DICT|INTERRES
    51   24   94 1    
    52   25   26 2    
    53   25   27 1    
    54   27   28 1    
    55   27   29 1    
    56   27   95 1    
    57   28   96 1    
    58   28   97 1    
    59   28   98 1    
    60   29   30 am   BACKBONE|DICT|INTERRES
    61   29   99 1    
    62   30   31 2    
    63   30   32 1    
    64   32   33 1    
    65   32   34 1    
    66   32  100 1    
    67   33  101 1    
    68   33  102 1    
    69   33  103 1    
    70   34   35 am   BACKBONE|DICT|INTERRES
    71   34  104 1    
    72   35   36 2    
    73   37   38 2    
    74   37   39 am   BACKBONE|DICT|INTERRES
    75   39   40 1    
    76   39  105 1    
    77   40   41 1    
    78   40   42 1    
    79   40  106 1    
    80   41  107 1    
    81   41  108 1    
    82   41  109 1    
    83   42   43 2    
    84   42   44 am   BACKBONE|DICT|INTERRES
    85   44   45 1    
    86   44  110 1    
    87   45   46 1    
    88   45   47 1    
    89   45  111 1    
    90   46  112 1    
    91   46  113 1    
    92   46  114 1    
    93   47   48 2    
    94   47   49 am   BACKBONE|DICT|INTERRES
    95   49   50 1    
    96   49  115 1    
    97   50   51 1    
    98   50   52 1    
    99   50  116 1    
   100   51  117 1    
   101   51  118 1    
   102   51  119 1    
   103   52   53 2    
   104   52   54 am   BACKBONE|DICT|INTERRES
   105   54   55 1    
   106   54  120 1    
   107   55   56 1    
   108   55   57 1    
   109   55  121 1    
   110   56  122 1    
   111   56  123 1    
   112   56  124 1    
   113   57   58 2    
   114   57   59 am   BACKBONE|DICT|INTERRES
   115   59   60 1    
   116   59  125 1    
   117   60   61 1    
   118   60   62 1    
   119   60  126 1    
   120   61  127 1    
   121   61  128 1    
   122   61  129 1    
   123   62   63 2    
   124   62   64 am   BACKBONE|DICT|INTERRES
   125   64   65 1    
   126   64  130 1    
   127   65   66 1    
   128   65   69 1    
   129   65  131 1    
   130   66   67 am   BACKBONE|DICT|INTERRES
   131   66   68 2    
   132   67  132 1    
   133   67  133 1    
   134   69   70 1    
   135   69  134 1    
   136   69  135 1    
   137   70   71 1    
   138   71  136 1    
   139   71  137 1    
@<TRIPOS>SUBSTRUCTURE
     1 UNK         1 GROUP             0       ****    0 ROOT    
