@<TRIPOS>MOLECULE
3R137
137   139    1
SMALL
USER_CHARGES


@<TRIPOS>ATOM
      1 CA         25.9171   -6.5199    2.7494 C.3       0 UNK        -0.2020 
      2 C          25.7997   -5.6370    1.5161 C.2       0 UNK         0.4855 
      3 O          24.8439   -4.8689    1.4007 O.2       0 UNK        -0.5197 
      4 N          26.7678   -5.7317    0.5969 N.am      1 UNK        -0.4892 
      5 CA         26.7910   -4.9927   -0.6687 C.3       1 UNK         0.0835 
      6 C6         28.1915   -5.0391   -1.3347 C.3       12 UNK        -0.0855 
      7 S7         29.5190   -4.3244   -0.3048 S.3       12 UNK        -0.2931 
      8 C8         29.2843   -2.5285   -0.5534 C.3       12 UNK         0.0378 
      9 C9         29.9336   -1.9147   -1.7973 C.ar      12 UNK        -0.0802 
     10 C10        30.2830   -2.6600   -2.9332 C.ar      12 UNK        -0.0944 
     11 C11        30.8209   -2.0324   -4.0611 C.ar      12 UNK        -0.0787 
     12 C12        31.0175   -0.6508   -4.0485 C.ar      12 UNK        -0.0862 
     13 C13        30.7021    0.1058   -2.9193 C.ar      12 UNK        -0.0733 
     14 C14        30.1563   -0.5326   -1.8026 C.ar      12 UNK        -0.0832 
     15 C15        30.9811    1.6028   -2.8873 C.3       12 UNK         0.0240 
     16 S16        29.7829    2.5586   -3.8697 S.3       12 UNK        -0.2522 
     17 C17        30.5485    2.5365   -5.5338 C.3       12 UNK        -0.0967 
     18 CA         29.6031    2.0461   -6.6597 C.3       5 UNK         0.0660 
     19 N          28.9108    0.8007   -6.3196 N.am      5 UNK        -0.4015 
     20 C          28.1499    0.0875   -7.1595 C.2       4 UNK         0.4946 
     21 O          28.1264    0.2790   -8.3765 O.2       4 UNK        -0.5353 
     22 CA         27.2047   -0.9679   -6.5526 C.3       4 UNK         0.0277 
     23 CB         27.5741   -2.3906   -6.9931 C.3       4 UNK        -0.1981 
     24 N          27.0862   -0.9291   -5.0932 N.am      4 UNK        -0.4209 
     25 C          26.5766    0.0738   -4.3696 C.2       3 UNK         0.4942 
     26 O          26.1723    1.1264   -4.8681 O.2       3 UNK        -0.5208 
     27 CA         26.5506   -0.1344   -2.8422 C.3       3 UNK         0.0250 
     28 CB         26.2882    1.1778   -2.0811 C.3       3 UNK        -0.1990 
     29 N          25.5853   -1.1469   -2.3991 N.am      3 UNK        -0.4232 
     30 C          25.6503   -2.4628   -2.6468 C.2       2 UNK         0.4993 
     31 O          26.5338   -2.9863   -3.3269 O.2       2 UNK        -0.5286 
     32 CA         24.5465   -3.3342   -2.0184 C.3       2 UNK         0.0209 
     33 CB         23.1806   -3.0007   -2.6455 C.3       2 UNK        -0.1931 
     34 N          24.7786   -4.7762   -2.1820 N.am      2 UNK        -0.4546 
     35 C          25.7196   -5.5621   -1.6319 C.2       1 UNK         0.5154 
     36 O          25.7537   -6.7680   -1.8829 O.2       1 UNK        -0.5181 
     37 C          28.6269    3.1647   -7.0851 C.2       5 UNK         0.5014 
     38 O          28.9654    3.9449   -7.9747 O.2       5 UNK        -0.5248 
     39 N          27.4368    3.2213   -6.4700 N.am      6 UNK        -0.4434 
     40 CA         26.3881    4.1748   -6.8282 C.3       6 UNK         0.0363 
     41 CB         25.4800    4.4212   -5.6123 C.3       6 UNK        -0.1936 
     42 C          25.5642    3.6862   -8.0286 C.2       6 UNK         0.5081 
     43 O          25.1801    4.5010   -8.8676 O.2       6 UNK        -0.5248 
     44 N          25.2890    2.3750   -8.0798 N.am      7 UNK        -0.4718 
     45 CA         24.4097    1.7692   -9.0817 C.3       7 UNK         0.0273 
     46 CB         23.8538    0.4378   -8.5501 C.3       7 UNK        -0.1935 
     47 C          25.0784    1.5596  -10.4494 C.2       7 UNK         0.5018 
     48 O          24.4303    1.8055  -11.4678 O.2       7 UNK        -0.5186 
     49 N          26.3282    1.0745  -10.4577 N.am      8 UNK        -0.4240 
     50 CA         27.0079    0.5906  -11.6651 C.3       8 UNK         0.0235 
     51 CB         26.9283   -0.9484  -11.6795 C.3       8 UNK        -0.2000 
     52 C          28.4668    1.0600  -11.7889 C.2       8 UNK         0.4941 
     53 O          29.1276    0.6652  -12.7506 O.2       8 UNK        -0.5273 
     54 N          28.9585    1.8590  -10.8281 N.am      9 UNK        -0.4262 
     55 CA         30.3583    2.2882  -10.6770 C.3       9 UNK         0.0264 
     56 CB         30.7939    3.2043  -11.8414 C.3       9 UNK        -0.1955 
     57 C          31.3284    1.1111  -10.4368 C.2       9 UNK         0.5031 
     58 O          32.4886    1.1754  -10.8498 O.2       9 UNK        -0.5390 
     59 N          30.8360    0.0529   -9.7781 N.am      10 UNK        -0.4204 
     60 CA         31.6006   -1.1492   -9.4462 C.3       10 UNK         0.0237 
     61 CB         30.6166   -2.3024   -9.2008 C.3       10 UNK        -0.1985 
     62 C          32.5136   -0.9356   -8.2261 C.2       10 UNK         0.4970 
     63 O          32.3245    0.0192   -7.4693 O.2       10 UNK        -0.4914 
     64 N          33.4681   -1.8595   -8.0529 N.am      11 UNK        -0.4285 
     65 CA         34.4887   -1.8846   -6.9863 C.3       11 UNK         0.1007 
     66 C          35.5575   -0.7503   -7.0805 C.2       11 UNK         0.5703 
     67 N          35.6421   -0.0013   -8.1739 N.am      11 UNK        -0.7361 
     68 O          36.3542   -0.5675   -6.1627 O.2       11 UNK        -0.4986 
     69 C69        33.8964   -2.0183   -5.5509 C.3       12 UNK        -0.0947 
     70 S70        32.8539   -3.4999   -5.3054 S.3       12 UNK        -0.2240 
     71 C71        31.1563   -2.8361   -5.3101 C.3       12 UNK         0.0194 
     72 H72        25.0530   -7.1799    2.8217 H         1 UNK         0.0906 
     73 H73        26.8147   -7.1377    2.7252 H         1 UNK         0.0906 
     74 H74        25.9530   -5.9054    3.6486 H         1 UNK         0.0906 
     75 H75        27.5276   -6.3833    0.7333 H         1 UNK         0.3140 
     76 H76        26.5646   -3.9554   -0.4304 H         1 UNK         0.1085 
     77 H77        28.4688   -6.0712   -1.5582 H         1 UNK         0.0836 
     78 H78        28.1784   -4.5297   -2.2962 H         1 UNK         0.0836 
     79 H79        28.2193   -2.2963   -0.5656 H         1 UNK         0.0731 
     80 H80        29.6887   -2.0337    0.3310 H         1 UNK         0.0731 
     81 H81        30.1362   -3.7289   -2.9578 H         1 UNK         0.1312 
     82 H82        31.4245   -0.1685   -4.9235 H         1 UNK         0.1406 
     83 H83        29.8988    0.0528   -0.9298 H         1 UNK         0.1631 
     84 H84        31.9967    1.8010   -3.2330 H         1 UNK         0.0717 
     85 H85        30.9429    1.9680   -1.8598 H         1 UNK         0.0717 
     86 H86        30.9212    3.5399   -5.7511 H         1 UNK         0.0934 
     87 H87        31.4441    1.9169   -5.5247 H         1 UNK         0.0934 
     88 H88        30.2245    1.8321   -7.5305 H         1 UNK         0.0739 
     89 H89        28.8767    0.5767   -5.3357 H         1 UNK         0.3093 
     90 H90        26.2139   -0.7499   -6.9494 H         1 UNK         0.0818 
     91 H91        26.8226   -3.1100   -6.6666 H         1 UNK         0.0819 
     92 H92        27.6340   -2.4637   -8.0799 H         1 UNK         0.0819 
     93 H93        28.5315   -2.7049   -6.5807 H         1 UNK         0.0819 
     94 H94        27.2937   -1.7897   -4.5908 H         1 UNK         0.3041 
     95 H95        27.5431   -0.4825   -2.5586 H         1 UNK         0.0784 
     96 H96        27.0108    1.9445   -2.3650 H         1 UNK         0.0793 
     97 H97        25.2941    1.5750   -2.2902 H         1 UNK         0.0793 
     98 H98        26.3766    1.0377   -1.0037 H         1 UNK         0.0793 
     99 H99        24.8060   -0.7989   -1.8589 H         1 UNK         0.3024 
    100 H100       24.4966   -3.1121   -0.9500 H         1 UNK         0.1171 
    101 H101       22.9111   -1.9552   -2.4911 H         1 UNK         0.0786 
    102 H102       22.3842   -3.5997   -2.2027 H         1 UNK         0.0786 
    103 H103       23.1759   -3.1817   -3.7215 H         1 UNK         0.0786 
    104 H104       24.1453   -5.2266   -2.8251 H         1 UNK         0.2977 
    105 H105       27.2014    2.5329   -5.7598 H         1 UNK         0.3127 
    106 H106       26.8468    5.1282   -7.1003 H         1 UNK         0.0770 
    107 H107       24.9675    3.5122   -5.2952 H         1 UNK         0.0814 
    108 H108       24.7140    5.1626   -5.8434 H         1 UNK         0.0814 
    109 H109       26.0497    4.7972   -4.7624 H         1 UNK         0.0814 
    110 H110       25.6236    1.7838   -7.3323 H         1 UNK         0.2983 
    111 H111       23.5604    2.4402   -9.2328 H         1 UNK         0.0947 
    112 H112       23.0750    0.0564   -9.2120 H         1 UNK         0.0806 
    113 H113       23.4086    0.5532   -7.5616 H         1 UNK         0.0806 
    114 H114       24.6226   -0.3315   -8.4904 H         1 UNK         0.0806 
    115 H115       26.7975    0.8772   -9.5769 H         1 UNK         0.3000 
    116 H116       26.5046    0.9664  -12.5582 H         1 UNK         0.0850 
    117 H117       27.3910   -1.3620  -12.5766 H         1 UNK         0.0810 
    118 H118       25.8939   -1.2920  -11.6650 H         1 UNK         0.0810 
    119 H119       27.4378   -1.3825  -10.8180 H         1 UNK         0.0810 
    120 H120       28.3385    2.1271  -10.0767 H         1 UNK         0.3040 
    121 H121       30.4033    2.8889   -9.7708 H         1 UNK         0.0766 
    122 H122       30.8663    2.6605  -12.7835 H         1 UNK         0.0812 
    123 H123       30.0939    4.0280  -11.9807 H         1 UNK         0.0812 
    124 H124       31.7732    3.6431  -11.6465 H         1 UNK         0.0812 
    125 H125       29.8843    0.1009   -9.4288 H         1 UNK         0.3205 
    126 H126       32.2284   -1.4072  -10.3019 H         1 UNK         0.0754 
    127 H127       31.1383   -3.2384   -8.9975 H         1 UNK         0.0769 
    128 H128       29.9759   -2.4701  -10.0670 H         1 UNK         0.0769 
    129 H129       29.9765   -2.0939   -8.3475 H         1 UNK         0.0769 
    130 H130       33.5417   -2.6074   -8.7272 H         1 UNK         0.2981 
    131 H131       35.0586   -2.7952   -7.1729 H         1 UNK         0.0541 
    132 H132       34.9988   -0.1322   -8.9377 H         1 UNK         0.3459 
    133 H133       36.3465    0.7175   -8.2242 H         1 UNK         0.3459 
    134 H134       33.3569   -1.1155   -5.2796 H         1 UNK         0.0612 
    135 H135       34.7034   -2.0992   -4.8211 H         1 UNK         0.0612 
    136 H136       30.4635   -3.6738   -5.4000 H         1 UNK         0.0624 
    137 H137       31.0048   -2.2246   -6.1975 H         1 UNK         0.0624 
@<TRIPOS>BOND
     1    1    2 1    
     2    1   72 1    
     3    1   73 1    
     4    1   74 1    
     5    2    3 2    
     6    2    4 am   BACKBONE|DICT|INTERRES
     7    4    5 1    
     8    4   75 1    
     9    5    6 1    
    10    5   35 1    
    11    5   76 1    
    12    6    7 1    
    13    6   77 1    
    14    6   78 1    
    15    7    8 1    
    16    8    9 1    
    17    8   79 1    
    18    8   80 1    
    19    9   10 ar   
    20    9   14 ar   
    21   10   11 ar   
    22   10   81 1    
    23   11   12 ar   
    24   11   71 1    
    25   12   13 ar   
    26   12   82 1    
    27   13   14 ar   
    28   13   15 1    
    29   14   83 1    
    30   15   16 1    
    31   15   84 1    
    32   15   85 1    
    33   16   17 1    
    34   17   18 1    
    35   17   86 1    
    36   17   87 1    
    37   18   19 1    
    38   18   37 1    
    39   18   88 1    
    40   19   20 am   BACKBONE|DICT|INTERRES
    41   19   89 1    
    42   20   21 2    
    43   20   22 1    
    44   22   23 1    
    45   22   24 1    
    46   22   90 1    
    47   23   91 1    
    48   23   92 1    
    49   23   93 1    
    50   24   25 am   BACKBONE|DICT|INTERRES
    51   24   94 1    
    52   25   26 2    
    53   25   27 1    
    54   27   28 1    
    55   27   29 1    
    56   27   95 1    
    57   28   96 1    
    58   28   97 1    
    59   28   98 1    
    60   29   30 am   BACKBONE|DICT|INTERRES
    61   29   99 1    
    62   30   31 2    
    63   30   32 1    
    64   32   33 1    
    65   32   34 1    
    66   32  100 1    
    67   33  101 1    
    68   33  102 1    
    69   33  103 1    
    70   34   35 am   BACKBONE|DICT|INTERRES
    71   34  104 1    
    72   35   36 2    
    73   37   38 2    
    74   37   39 am   BACKBONE|DICT|INTERRES
    75   39   40 1    
    76   39  105 1    
    77   40   41 1    
    78   40   42 1    
    79   40  106 1    
    80   41  107 1    
    81   41  108 1    
    82   41  109 1    
    83   42   43 2    
    84   42   44 am   BACKBONE|DICT|INTERRES
    85   44   45 1    
    86   44  110 1    
    87   45   46 1    
    88   45   47 1    
    89   45  111 1    
    90   46  112 1    
    91   46  113 1    
    92   46  114 1    
    93   47   48 2    
    94   47   49 am   BACKBONE|DICT|INTERRES
    95   49   50 1    
    96   49  115 1    
    97   50   51 1    
    98   50   52 1    
    99   50  116 1    
   100   51  117 1    
   101   51  118 1    
   102   51  119 1    
   103   52   53 2    
   104   52   54 am   BACKBONE|DICT|INTERRES
   105   54   55 1    
   106   54  120 1    
   107   55   56 1    
   108   55   57 1    
   109   55  121 1    
   110   56  122 1    
   111   56  123 1    
   112   56  124 1    
   113   57   58 2    
   114   57   59 am   BACKBONE|DICT|INTERRES
   115   59   60 1    
   116   59  125 1    
   117   60   61 1    
   118   60   62 1    
   119   60  126 1    
   120   61  127 1    
   121   61  128 1    
   122   61  129 1    
   123   62   63 2    
   124   62   64 am   BACKBONE|DICT|INTERRES
   125   64   65 1    
   126   64  130 1    
   127   65   66 1    
   128   65   69 1    
   129   65  131 1    
   130   66   67 am   BACKBONE|DICT|INTERRES
   131   66   68 2    
   132   67  132 1    
   133   67  133 1    
   134   69   70 1    
   135   69  134 1    
   136   69  135 1    
   137   70   71 1    
   138   71  136 1    
   139   71  137 1    
@<TRIPOS>SUBSTRUCTURE
     1 UNK         1 GROUP             0       ****    0 ROOT    
