@<TRIPOS>MOLECULE
3R137
137   139    1
SMALL
USER_CHARGES


@<TRIPOS>ATOM
      1 CA         25.9058   -6.2749   -5.2915 C.3       0 UNK        -0.2020 
      2 C          25.9466   -5.5690   -3.9450 C.2       0 UNK         0.4855 
      3 O          24.9022   -5.1604   -3.4353 O.2       0 UNK        -0.5197 
      4 N          27.1467   -5.4133   -3.3690 N.am      1 UNK        -0.4892 
      5 CA         27.4024   -4.7041   -2.1097 C.3       1 UNK         0.0835 
      6 C6         28.8917   -4.8292   -1.7032 C.3       12 UNK        -0.0855 
      7 S7         29.1981   -4.3417    0.0299 S.3       12 UNK        -0.2931 
      8 C8         31.0067   -4.0705    0.0325 C.3       12 UNK         0.0378 
      9 C9         31.4587   -3.0202   -0.9776 C.ar      12 UNK        -0.0802 
     10 C10        32.4851   -3.3076   -1.8814 C.ar      12 UNK        -0.0944 
     11 C11        32.8761   -2.3650   -2.8373 C.ar      12 UNK        -0.0787 
     12 C12        32.2196   -1.1310   -2.8978 C.ar      12 UNK        -0.0862 
     13 C13        31.1900   -0.8272   -2.0003 C.ar      12 UNK        -0.0733 
     14 C14        30.8414   -1.7678   -1.0230 C.ar      12 UNK        -0.0832 
     15 C15        30.4537    0.5076   -2.1051 C.3       12 UNK         0.0240 
     16 S16        28.6596    0.3160   -1.8457 S.3       12 UNK        -0.2522 
     17 C17        27.9354    1.7042   -2.7706 C.3       12 UNK        -0.0967 
     18 CA         27.9684    1.5476   -4.3158 C.3       5 UNK         0.0660 
     19 N          27.7258    0.1794   -4.7950 N.am      5 UNK        -0.4015 
     20 C          27.8559   -0.2084   -6.0739 C.2       4 UNK         0.4946 
     21 O          28.2435    0.5316   -6.9768 O.2       4 UNK        -0.5353 
     22 CA         27.4122   -1.6359   -6.4255 C.3       4 UNK         0.0277 
     23 CB         28.5432   -2.6487   -6.1846 C.3       4 UNK        -0.1981 
     24 N          26.2071   -2.0143   -5.6877 N.am      4 UNK        -0.4209 
     25 C          24.9869   -1.5301   -5.9698 C.2       3 UNK         0.4942 
     26 O          24.7561   -0.7874   -6.9235 O.2       3 UNK        -0.5208 
     27 CA         23.8366   -1.8893   -5.0137 C.3       3 UNK         0.0250 
     28 CB         23.0807   -3.1299   -5.5132 C.3       3 UNK        -0.1990 
     29 N          24.2853   -2.0954   -3.6346 N.am      3 UNK        -0.4232 
     30 C          24.7559   -1.1124   -2.8508 C.2       2 UNK         0.4993 
     31 O          24.8114    0.0676   -3.2009 O.2       2 UNK        -0.5286 
     32 CA         25.3087   -1.5136   -1.4700 C.3       2 UNK         0.0209 
     33 CB         24.1979   -1.4500   -0.4102 C.3       2 UNK        -0.1931 
     34 N          25.9436   -2.8377   -1.4331 N.am      2 UNK        -0.4546 
     35 C          26.9478   -3.2337   -2.2294 C.2       1 UNK         0.5154 
     36 O          27.4562   -2.5152   -3.0912 O.2       1 UNK        -0.5181 
     37 C          26.9964    2.5538   -4.9649 C.2       5 UNK         0.5014 
     38 O          27.4241    3.6375   -5.3629 O.2       5 UNK        -0.5248 
     39 N          25.7161    2.1644   -5.0757 N.am      6 UNK        -0.4434 
     40 CA         24.6649    2.9247   -5.7558 C.3       6 UNK         0.0363 
     41 CB         23.2987    2.2767   -5.4818 C.3       6 UNK        -0.1936 
     42 C          24.9073    3.0674   -7.2693 C.2       6 UNK         0.5081 
     43 O          24.6694    4.1453   -7.8150 O.2       6 UNK        -0.5248 
     44 N          25.3885    1.9955   -7.9178 N.am      7 UNK        -0.4718 
     45 CA         25.7952    1.9962   -9.3279 C.3       7 UNK         0.0273 
     46 CB         25.9947    0.5503   -9.8090 C.3       7 UNK        -0.1935 
     47 C          27.0625    2.8305   -9.5886 C.2       7 UNK         0.5018 
     48 O          27.1996    3.3919  -10.6760 O.2       7 UNK        -0.5186 
     49 N          27.9647    2.8846   -8.5982 N.am      8 UNK        -0.4240 
     50 CA         29.2053    3.6670   -8.4971 C.3       8 UNK         0.0235 
     51 CB         28.9283    5.1784   -8.6100 C.3       8 UNK        -0.2000 
     52 C          30.3319    3.2335   -9.4511 C.2       8 UNK         0.4941 
     53 O          31.4945    3.2479   -9.0462 O.2       8 UNK        -0.5273 
     54 N          29.9856    2.8498  -10.6858 N.am      9 UNK        -0.4262 
     55 CA         30.9050    2.2902  -11.6800 C.3       9 UNK         0.0264 
     56 CB         30.2530    2.3695  -13.0699 C.3       9 UNK        -0.1955 
     57 C          31.3169    0.8415  -11.3600 C.2       9 UNK         0.5031 
     58 O          32.3977    0.4146  -11.7703 O.2       9 UNK        -0.5390 
     59 N          30.4518    0.1116  -10.6442 N.am      10 UNK        -0.4204 
     60 CA         30.6999   -1.2456  -10.1634 C.3       10 UNK         0.0237 
     61 CB         29.3525   -1.9105   -9.8444 C.3       10 UNK        -0.1985 
     62 C          31.6047   -1.2293   -8.9213 C.2       10 UNK         0.4970 
     63 O          31.5422   -0.2868   -8.1302 O.2       10 UNK        -0.4914 
     64 N          32.4070   -2.2898   -8.7659 N.am      11 UNK        -0.4285 
     65 CA         33.3727   -2.4812   -7.6686 C.3       11 UNK         0.1007 
     66 C          34.5916   -1.5034   -7.6934 C.2       11 UNK         0.5703 
     67 N          34.8497   -0.7960   -8.7878 N.am      11 UNK        -0.7361 
     68 O          35.3414   -1.4048   -6.7258 O.2       11 UNK        -0.4986 
     69 C69        32.6709   -2.5825   -6.2793 C.3       12 UNK        -0.0947 
     70 S70        33.4835   -3.7666   -5.1547 S.3       12 UNK        -0.2240 
     71 C71        34.0177   -2.6847   -3.7919 C.3       12 UNK         0.0194 
     72 H72        25.6401   -5.5689   -6.0777 H         1 UNK         0.0906 
     73 H73        26.8666   -6.7217   -5.5465 H         1 UNK         0.0906 
     74 H74        25.1583   -7.0677   -5.2773 H         1 UNK         0.0906 
     75 H75        27.9680   -5.7512   -3.8500 H         1 UNK         0.3140 
     76 H76        26.7987   -5.1958   -1.3437 H         1 UNK         0.1085 
     77 H77        29.2219   -5.8641   -1.8069 H         1 UNK         0.0836 
     78 H78        29.5189   -4.2449   -2.3793 H         1 UNK         0.0836 
     79 H79        31.5002   -5.0253   -0.1559 H         1 UNK         0.0731 
     80 H80        31.3151   -3.7551    1.0300 H         1 UNK         0.0731 
     81 H81        32.9797   -4.2690   -1.8491 H         1 UNK         0.1312 
     82 H82        32.5099   -0.4073   -3.6471 H         1 UNK         0.1406 
     83 H83        30.0516   -1.5457   -0.3186 H         1 UNK         0.1631 
     84 H84        30.6262    0.9513   -3.0863 H         1 UNK         0.0717 
     85 H85        30.8538    1.2039   -1.3673 H         1 UNK         0.0717 
     86 H86        26.9068    1.7958   -2.4145 H         1 UNK         0.0934 
     87 H87        28.4358    2.6276   -2.4728 H         1 UNK         0.0934 
     88 H88        28.9726    1.8138   -4.6522 H         1 UNK         0.0739 
     89 H89        27.4541   -0.5044   -4.0979 H         1 UNK         0.3093 
     90 H90        27.1668   -1.6598   -7.4885 H         1 UNK         0.0818 
     91 H91        28.2197   -3.6679   -6.3951 H         1 UNK         0.0819 
     92 H92        29.3880   -2.4340   -6.8387 H         1 UNK         0.0819 
     93 H93        28.9192   -2.6168   -5.1622 H         1 UNK         0.0819 
     94 H94        26.3493   -2.5361   -4.8303 H         1 UNK         0.3041 
     95 H95        23.1375   -1.0504   -5.0128 H         1 UNK         0.0784 
     96 H96        22.6748   -2.9601   -6.5114 H         1 UNK         0.0793 
     97 H97        23.7278   -4.0044   -5.5720 H         1 UNK         0.0793 
     98 H98        22.2429   -3.3752   -4.8603 H         1 UNK         0.0793 
     99 H99        24.3135   -3.0518   -3.2976 H         1 UNK         0.3024 
    100 H100       26.0705   -0.7792   -1.2055 H         1 UNK         0.1171 
    101 H101       24.5934   -1.6233    0.5909 H         1 UNK         0.0786 
    102 H102       23.7225   -0.4679   -0.4023 H         1 UNK         0.0786 
    103 H103       23.4175   -2.1887   -0.5974 H         1 UNK         0.0786 
    104 H104       25.5601   -3.5003   -0.7743 H         1 UNK         0.2977 
    105 H105       25.4373    1.2905   -4.6371 H         1 UNK         0.3127 
    106 H106       24.6562    3.9288   -5.3265 H         1 UNK         0.0770 
    107 H107       23.2370    1.2721   -5.9001 H         1 UNK         0.0814 
    108 H108       22.4940    2.8638   -5.9262 H         1 UNK         0.0814 
    109 H109       23.0984    2.2073   -4.4123 H         1 UNK         0.0814 
    110 H110       25.4826    1.1197   -7.4142 H         1 UNK         0.2983 
    111 H111       24.9864    2.4411   -9.9116 H         1 UNK         0.0947 
    112 H112       26.2688    0.5225  -10.8645 H         1 UNK         0.0806 
    113 H113       25.0815   -0.0342   -9.6953 H         1 UNK         0.0806 
    114 H114       26.7839    0.0459   -9.2525 H         1 UNK         0.0806 
    115 H115       27.8036    2.2628   -7.8098 H         1 UNK         0.3000 
    116 H116       29.5725    3.4788   -7.4866 H         1 UNK         0.0850 
    117 H117       29.8360    5.7546   -8.4262 H         1 UNK         0.0810 
    118 H118       28.1870    5.4975   -7.8768 H         1 UNK         0.0810 
    119 H119       28.5635    5.4553   -9.5995 H         1 UNK         0.0810 
    120 H120       29.0052    2.9400  -10.9426 H         1 UNK         0.3040 
    121 H121       31.8128    2.8974  -11.6915 H         1 UNK         0.0766 
    122 H122       30.0192    3.3996  -13.3398 H         1 UNK         0.0812 
    123 H123       29.3287    1.7922  -13.1167 H         1 UNK         0.0812 
    124 H124       30.9221    1.9781  -13.8376 H         1 UNK         0.0812 
    125 H125       29.6262    0.5713  -10.2919 H         1 UNK         0.3205 
    126 H126       31.1918   -1.8148  -10.9554 H         1 UNK         0.0754 
    127 H127       29.4900   -2.9271   -9.4735 H         1 UNK         0.0769 
    128 H128       28.7189   -1.9705  -10.7296 H         1 UNK         0.0769 
    129 H129       28.8108   -1.3523   -9.0824 H         1 UNK         0.0769 
    130 H130       32.3980   -3.0171   -9.4666 H         1 UNK         0.2981 
    131 H131       33.8112   -3.4559   -7.8846 H         1 UNK         0.0541 
    132 H132       35.6457   -0.1782   -8.7960 H         1 UNK         0.3459 
    133 H133       34.2495   -0.8569   -9.5948 H         1 UNK         0.3459 
    134 H134       31.6509   -2.9474   -6.3996 H         1 UNK         0.0612 
    135 H135       32.5767   -1.6007   -5.8135 H         1 UNK         0.0612 
    136 H136       34.8152   -3.1871   -3.2427 H         1 UNK         0.0624 
    137 H137       34.4574   -1.7703   -4.1924 H         1 UNK         0.0624 
@<TRIPOS>BOND
     1    1    2 1    
     2    1   72 1    
     3    1   73 1    
     4    1   74 1    
     5    2    3 2    
     6    2    4 am   BACKBONE|DICT|INTERRES
     7    4    5 1    
     8    4   75 1    
     9    5    6 1    
    10    5   35 1    
    11    5   76 1    
    12    6    7 1    
    13    6   77 1    
    14    6   78 1    
    15    7    8 1    
    16    8    9 1    
    17    8   79 1    
    18    8   80 1    
    19    9   10 ar   
    20    9   14 ar   
    21   10   11 ar   
    22   10   81 1    
    23   11   12 ar   
    24   11   71 1    
    25   12   13 ar   
    26   12   82 1    
    27   13   14 ar   
    28   13   15 1    
    29   14   83 1    
    30   15   16 1    
    31   15   84 1    
    32   15   85 1    
    33   16   17 1    
    34   17   18 1    
    35   17   86 1    
    36   17   87 1    
    37   18   19 1    
    38   18   37 1    
    39   18   88 1    
    40   19   20 am   BACKBONE|DICT|INTERRES
    41   19   89 1    
    42   20   21 2    
    43   20   22 1    
    44   22   23 1    
    45   22   24 1    
    46   22   90 1    
    47   23   91 1    
    48   23   92 1    
    49   23   93 1    
    50   24   25 am   BACKBONE|DICT|INTERRES
    51   24   94 1    
    52   25   26 2    
    53   25   27 1    
    54   27   28 1    
    55   27   29 1    
    56   27   95 1    
    57   28   96 1    
    58   28   97 1    
    59   28   98 1    
    60   29   30 am   BACKBONE|DICT|INTERRES
    61   29   99 1    
    62   30   31 2    
    63   30   32 1    
    64   32   33 1    
    65   32   34 1    
    66   32  100 1    
    67   33  101 1    
    68   33  102 1    
    69   33  103 1    
    70   34   35 am   BACKBONE|DICT|INTERRES
    71   34  104 1    
    72   35   36 2    
    73   37   38 2    
    74   37   39 am   BACKBONE|DICT|INTERRES
    75   39   40 1    
    76   39  105 1    
    77   40   41 1    
    78   40   42 1    
    79   40  106 1    
    80   41  107 1    
    81   41  108 1    
    82   41  109 1    
    83   42   43 2    
    84   42   44 am   BACKBONE|DICT|INTERRES
    85   44   45 1    
    86   44  110 1    
    87   45   46 1    
    88   45   47 1    
    89   45  111 1    
    90   46  112 1    
    91   46  113 1    
    92   46  114 1    
    93   47   48 2    
    94   47   49 am   BACKBONE|DICT|INTERRES
    95   49   50 1    
    96   49  115 1    
    97   50   51 1    
    98   50   52 1    
    99   50  116 1    
   100   51  117 1    
   101   51  118 1    
   102   51  119 1    
   103   52   53 2    
   104   52   54 am   BACKBONE|DICT|INTERRES
   105   54   55 1    
   106   54  120 1    
   107   55   56 1    
   108   55   57 1    
   109   55  121 1    
   110   56  122 1    
   111   56  123 1    
   112   56  124 1    
   113   57   58 2    
   114   57   59 am   BACKBONE|DICT|INTERRES
   115   59   60 1    
   116   59  125 1    
   117   60   61 1    
   118   60   62 1    
   119   60  126 1    
   120   61  127 1    
   121   61  128 1    
   122   61  129 1    
   123   62   63 2    
   124   62   64 am   BACKBONE|DICT|INTERRES
   125   64   65 1    
   126   64  130 1    
   127   65   66 1    
   128   65   69 1    
   129   65  131 1    
   130   66   67 am   BACKBONE|DICT|INTERRES
   131   66   68 2    
   132   67  132 1    
   133   67  133 1    
   134   69   70 1    
   135   69  134 1    
   136   69  135 1    
   137   70   71 1    
   138   71  136 1    
   139   71  137 1    
@<TRIPOS>SUBSTRUCTURE
     1 UNK         1 GROUP             0       ****    0 ROOT    
