@<TRIPOS>MOLECULE
3R137
137   139    1
SMALL
USER_CHARGES


@<TRIPOS>ATOM
      1 CA         26.6333   -1.6674    1.8900 C.3       0 UNK        -0.2020 
      2 C          26.6356   -2.1162    0.4372 C.2       0 UNK         0.4855 
      3 O          25.9824   -1.4876   -0.3959 O.2       0 UNK        -0.5197 
      4 N          27.3487   -3.2106    0.1327 N.am      1 UNK        -0.4892 
      5 CA         27.5650   -3.7591   -1.2166 C.3       1 UNK         0.0835 
      6 C6         28.5069   -4.9888   -1.2048 C.3       12 UNK        -0.0855 
      7 S7         30.1151   -4.6337   -0.4179 S.3       12 UNK        -0.2931 
      8 C8         31.2236   -4.5145   -1.8623 C.3       12 UNK         0.0378 
      9 C9         30.8666   -3.3672   -2.8016 C.ar      12 UNK        -0.0802 
     10 C10        30.7094   -3.6042   -4.1710 C.ar      12 UNK        -0.0944 
     11 C11        30.4210   -2.5529   -5.0468 C.ar      12 UNK        -0.0787 
     12 C12        30.2599   -1.2592   -4.5414 C.ar      12 UNK        -0.0862 
     13 C13        30.4109   -1.0099   -3.1743 C.ar      12 UNK        -0.0733 
     14 C14        30.7266   -2.0641   -2.3127 C.ar      12 UNK        -0.0832 
     15 C15        30.2340    0.3940   -2.6196 C.3       12 UNK         0.0240 
     16 S16        28.5315    0.6290   -2.0259 S.3       12 UNK        -0.2522 
     17 C17        27.9672    2.0407   -3.0353 C.3       12 UNK        -0.0967 
     18 CA         27.6965    1.6927   -4.5218 C.3       5 UNK         0.0660 
     19 N          26.8980    0.4704   -4.6705 N.am      5 UNK        -0.4015 
     20 C          26.5346   -0.1115   -5.8228 C.2       4 UNK         0.4946 
     21 O          26.8256    0.3328   -6.9310 O.2       4 UNK        -0.5353 
     22 CA         25.6691   -1.3794   -5.7348 C.3       4 UNK         0.0277 
     23 CB         26.5350   -2.6214   -5.9966 C.3       4 UNK        -0.1981 
     24 N          24.9512   -1.5226   -4.4604 N.am      4 UNK        -0.4209 
     25 C          23.9902   -0.6834   -4.0344 C.2       3 UNK         0.4942 
     26 O          23.6240    0.2974   -4.6853 O.2       3 UNK        -0.5208 
     27 CA         23.3751   -0.9191   -2.6397 C.3       3 UNK         0.0250 
     28 CB         21.8633   -0.6082   -2.5977 C.3       3 UNK        -0.1990 
     29 N          23.6770   -2.2318   -2.0585 N.am      3 UNK        -0.4232 
     30 C          23.2379   -3.4366   -2.4589 C.2       2 UNK         0.4993 
     31 O          22.4329   -3.6041   -3.3762 O.2       2 UNK        -0.5286 
     32 CA         23.8239   -4.6617   -1.7196 C.3       2 UNK         0.0209 
     33 CB         23.7462   -5.9555   -2.5589 C.3       2 UNK        -0.1931 
     34 N          25.1959   -4.4461   -1.2325 N.am      2 UNK        -0.4546 
     35 C          26.2631   -4.0977   -1.9702 C.2       1 UNK         0.5154 
     36 O          26.2336   -3.9806   -3.1937 O.2       1 UNK        -0.5181 
     37 C          27.1057    2.9211   -5.2494 C.2       5 UNK         0.5014 
     38 O          27.8629    3.8211   -5.6146 O.2       5 UNK        -0.5248 
     39 N          25.7810    2.9330   -5.4665 N.am      6 UNK        -0.4434 
     40 CA         25.0579    3.9580   -6.2244 C.3       6 UNK         0.0363 
     41 CB         23.5475    3.7339   -6.0464 C.3       6 UNK        -0.1936 
     42 C          25.4203    4.0040   -7.7229 C.2       6 UNK         0.5081 
     43 O          25.2128    5.0403   -8.3550 O.2       6 UNK        -0.5248 
     44 N          25.9542    2.9028   -8.2654 N.am      7 UNK        -0.4718 
     45 CA         26.4248    2.7800   -9.6434 C.3       7 UNK         0.0273 
     46 CB         25.2749    2.2909  -10.5459 C.3       7 UNK        -0.1935 
     47 C          27.6466    1.8508   -9.6501 C.2       7 UNK         0.5018 
     48 O          27.6396    0.8311  -10.3416 O.2       7 UNK        -0.5186 
     49 N          28.6449    2.2075   -8.8248 N.am      8 UNK        -0.4240 
     50 CA         29.8200    1.3998   -8.4785 C.3       8 UNK         0.0235 
     51 CB         30.7308    2.2079   -7.5372 C.3       8 UNK        -0.2000 
     52 C          30.6179    0.8729   -9.6813 C.2       8 UNK         0.4941 
     53 O          30.9661   -0.3084   -9.6957 O.2       8 UNK        -0.5273 
     54 N          30.8800    1.7523  -10.6618 N.am      9 UNK        -0.4262 
     55 CA         31.5937    1.4860  -11.9175 C.3       9 UNK         0.0264 
     56 CB         30.6847    0.6944  -12.8854 C.3       9 UNK        -0.1955 
     57 C          32.9653    0.8286  -11.6663 C.2       9 UNK         0.5031 
     58 O          33.8721    1.5036  -11.1753 O.2       9 UNK        -0.5390 
     59 N          33.0780   -0.4766  -11.9512 N.am      10 UNK        -0.4204 
     60 CA         34.2549   -1.3115  -11.6936 C.3       10 UNK         0.0237 
     61 CB         34.0152   -2.7136  -12.2770 C.3       10 UNK        -0.1985 
     62 C          34.6532   -1.4088  -10.2076 C.2       10 UNK         0.4970 
     63 O          35.8291   -1.6455   -9.9268 O.2       10 UNK        -0.4914 
     64 N          33.6963   -1.2098   -9.2899 N.am      11 UNK        -0.4285 
     65 CA         33.9504   -1.0960   -7.8455 C.3       11 UNK         0.1007 
     66 C          34.5919    0.2596   -7.4216 C.2       11 UNK         0.5703 
     67 N          34.6826    1.2668   -8.2844 N.am      11 UNK        -0.7361 
     68 O          35.0268    0.3980   -6.2809 O.2       11 UNK        -0.4986 
     69 C69        32.6830   -1.3871   -7.0000 C.3       12 UNK        -0.0947 
     70 S70        31.9457   -3.0244   -7.3138 S.3       12 UNK        -0.2240 
     71 C71        30.3075   -2.8128   -6.5428 C.3       12 UNK         0.0194 
     72 H72        25.6162   -1.6662    2.2808 H         1 UNK         0.0906 
     73 H73        27.2394   -2.3181    2.5201 H         1 UNK         0.0906 
     74 H74        27.0293   -0.6552    1.9674 H         1 UNK         0.0906 
     75 H75        27.8695   -3.6759    0.8636 H         1 UNK         0.3140 
     76 H76        28.0479   -2.9693   -1.7962 H         1 UNK         0.1085 
     77 H77        28.6794   -5.3498   -2.2211 H         1 UNK         0.0836 
     78 H78        28.0445   -5.8180   -0.6657 H         1 UNK         0.0836 
     79 H79        31.2156   -5.4690   -2.3912 H         1 UNK         0.0731 
     80 H80        32.2451   -4.3695   -1.5083 H         1 UNK         0.0731 
     81 H81        30.8350   -4.6037   -4.5647 H         1 UNK         0.1312 
     82 H82        30.0303   -0.4462   -5.2154 H         1 UNK         0.1406 
     83 H83        30.8487   -1.8734   -1.2548 H         1 UNK         0.1631 
     84 H84        30.4888    1.1363   -3.3771 H         1 UNK         0.0717 
     85 H85        30.9241    0.5588   -1.7908 H         1 UNK         0.0717 
     86 H86        27.0595    2.4243   -2.5646 H         1 UNK         0.0934 
     87 H87        28.7046    2.8425   -2.9573 H         1 UNK         0.0934 
     88 H88        28.6544    1.4878   -5.0008 H         1 UNK         0.0739 
     89 H89        26.6343    0.0180   -3.8072 H         1 UNK         0.3093 
     90 H90        24.9205   -1.3144   -6.5270 H         1 UNK         0.0818 
     91 H91        25.9404   -3.5349   -5.9743 H         1 UNK         0.0819 
     92 H92        27.3321   -2.7199   -5.2584 H         1 UNK         0.0819 
     93 H93        27.0083   -2.5664   -6.9780 H         1 UNK         0.0819 
     94 H94        25.2104   -2.3177   -3.8849 H         1 UNK         0.3041 
     95 H95        23.8678   -0.1989   -1.9847 H         1 UNK         0.0784 
     96 H96        21.6713    0.4332   -2.8594 H         1 UNK         0.0793 
     97 H97        21.3010   -1.2241   -3.2998 H         1 UNK         0.0793 
     98 H98        21.4515   -0.7706   -1.6018 H         1 UNK         0.0793 
     99 H99        24.3835   -2.2038   -1.3272 H         1 UNK         0.3024 
    100 H100       23.1984   -4.8024   -0.8364 H         1 UNK         0.1171 
    101 H101       24.1542   -6.8069   -2.0143 H         1 UNK         0.0786 
    102 H102       22.7130   -6.1991   -2.8096 H         1 UNK         0.0786 
    103 H103       24.2945   -5.8631   -3.4970 H         1 UNK         0.0786 
    104 H104       25.3226   -4.4910   -0.2304 H         1 UNK         0.2977 
    105 H105       25.2341    2.1445   -5.1449 H         1 UNK         0.3127 
    106 H106       25.3140    4.9306   -5.7990 H         1 UNK         0.0770 
    107 H107       23.2368    2.7615   -6.4313 H         1 UNK         0.0814 
    108 H108       22.9734    4.4944   -6.5776 H         1 UNK         0.0814 
    109 H109       23.2585    3.7860   -4.9965 H         1 UNK         0.0814 
    110 H110       26.1281    2.0910   -7.6769 H         1 UNK         0.2983 
    111 H111       26.7643    3.7517  -10.0094 H         1 UNK         0.0947 
    112 H112       25.6057    2.1890  -11.5803 H         1 UNK         0.0806 
    113 H113       24.4406    2.9924  -10.5406 H         1 UNK         0.0806 
    114 H114       24.8980    1.3193  -10.2239 H         1 UNK         0.0806 
    115 H115       28.5207    3.0560   -8.2903 H         1 UNK         0.3000 
    116 H116       29.4531    0.5283   -7.9322 H         1 UNK         0.0850 
    117 H117       31.6285    1.6499   -7.2713 H         1 UNK         0.0810 
    118 H118       30.2211    2.4584   -6.6073 H         1 UNK         0.0810 
    119 H119       31.0595    3.1407   -7.9968 H         1 UNK         0.0810 
    120 H120       30.5687    2.7041  -10.5294 H         1 UNK         0.3040 
    121 H121       31.7994    2.4549  -12.3751 H         1 UNK         0.0766 
    122 H122       31.1917    0.4904  -13.8296 H         1 UNK         0.0812 
    123 H123       29.7866    1.2643  -13.1243 H         1 UNK         0.0812 
    124 H124       30.3581   -0.2577  -12.4651 H         1 UNK         0.0812 
    125 H125       32.2590   -0.9489  -12.3058 H         1 UNK         0.3205 
    126 H126       35.0963   -0.8593  -12.2227 H         1 UNK         0.0754 
    127 H127       33.1663   -3.2078  -11.8023 H         1 UNK         0.0769 
    128 H128       34.8875   -3.3523  -12.1303 H         1 UNK         0.0769 
    129 H129       33.8246   -2.6714  -13.3497 H         1 UNK         0.0769 
    130 H130       32.7444   -1.0094   -9.5862 H         1 UNK         0.2981 
    131 H131       34.6845   -1.8606   -7.5847 H         1 UNK         0.0541 
    132 H132       34.3551    1.1796   -9.2400 H         1 UNK         0.3459 
    133 H133       35.1087    2.1282   -7.9828 H         1 UNK         0.3459 
    134 H134       31.9224   -0.6291   -7.1824 H         1 UNK         0.0612 
    135 H135       32.9187   -1.3353   -5.9353 H         1 UNK         0.0612 
    136 H136       29.7770   -1.9991   -7.0406 H         1 UNK         0.0624 
    137 H137       29.7161   -3.7135   -6.7127 H         1 UNK         0.0624 
@<TRIPOS>BOND
     1    1    2 1    
     2    1   72 1    
     3    1   73 1    
     4    1   74 1    
     5    2    3 2    
     6    2    4 am   BACKBONE|DICT|INTERRES
     7    4    5 1    
     8    4   75 1    
     9    5    6 1    
    10    5   35 1    
    11    5   76 1    
    12    6    7 1    
    13    6   77 1    
    14    6   78 1    
    15    7    8 1    
    16    8    9 1    
    17    8   79 1    
    18    8   80 1    
    19    9   10 ar   
    20    9   14 ar   
    21   10   11 ar   
    22   10   81 1    
    23   11   12 ar   
    24   11   71 1    
    25   12   13 ar   
    26   12   82 1    
    27   13   14 ar   
    28   13   15 1    
    29   14   83 1    
    30   15   16 1    
    31   15   84 1    
    32   15   85 1    
    33   16   17 1    
    34   17   18 1    
    35   17   86 1    
    36   17   87 1    
    37   18   19 1    
    38   18   37 1    
    39   18   88 1    
    40   19   20 am   BACKBONE|DICT|INTERRES
    41   19   89 1    
    42   20   21 2    
    43   20   22 1    
    44   22   23 1    
    45   22   24 1    
    46   22   90 1    
    47   23   91 1    
    48   23   92 1    
    49   23   93 1    
    50   24   25 am   BACKBONE|DICT|INTERRES
    51   24   94 1    
    52   25   26 2    
    53   25   27 1    
    54   27   28 1    
    55   27   29 1    
    56   27   95 1    
    57   28   96 1    
    58   28   97 1    
    59   28   98 1    
    60   29   30 am   BACKBONE|DICT|INTERRES
    61   29   99 1    
    62   30   31 2    
    63   30   32 1    
    64   32   33 1    
    65   32   34 1    
    66   32  100 1    
    67   33  101 1    
    68   33  102 1    
    69   33  103 1    
    70   34   35 am   BACKBONE|DICT|INTERRES
    71   34  104 1    
    72   35   36 2    
    73   37   38 2    
    74   37   39 am   BACKBONE|DICT|INTERRES
    75   39   40 1    
    76   39  105 1    
    77   40   41 1    
    78   40   42 1    
    79   40  106 1    
    80   41  107 1    
    81   41  108 1    
    82   41  109 1    
    83   42   43 2    
    84   42   44 am   BACKBONE|DICT|INTERRES
    85   44   45 1    
    86   44  110 1    
    87   45   46 1    
    88   45   47 1    
    89   45  111 1    
    90   46  112 1    
    91   46  113 1    
    92   46  114 1    
    93   47   48 2    
    94   47   49 am   BACKBONE|DICT|INTERRES
    95   49   50 1    
    96   49  115 1    
    97   50   51 1    
    98   50   52 1    
    99   50  116 1    
   100   51  117 1    
   101   51  118 1    
   102   51  119 1    
   103   52   53 2    
   104   52   54 am   BACKBONE|DICT|INTERRES
   105   54   55 1    
   106   54  120 1    
   107   55   56 1    
   108   55   57 1    
   109   55  121 1    
   110   56  122 1    
   111   56  123 1    
   112   56  124 1    
   113   57   58 2    
   114   57   59 am   BACKBONE|DICT|INTERRES
   115   59   60 1    
   116   59  125 1    
   117   60   61 1    
   118   60   62 1    
   119   60  126 1    
   120   61  127 1    
   121   61  128 1    
   122   61  129 1    
   123   62   63 2    
   124   62   64 am   BACKBONE|DICT|INTERRES
   125   64   65 1    
   126   64  130 1    
   127   65   66 1    
   128   65   69 1    
   129   65  131 1    
   130   66   67 am   BACKBONE|DICT|INTERRES
   131   66   68 2    
   132   67  132 1    
   133   67  133 1    
   134   69   70 1    
   135   69  134 1    
   136   69  135 1    
   137   70   71 1    
   138   71  136 1    
   139   71  137 1    
@<TRIPOS>SUBSTRUCTURE
     1 UNK         1 GROUP             0       ****    0 ROOT    
