@<TRIPOS>MOLECULE
3R137
137   139    1
SMALL
USER_CHARGES


@<TRIPOS>ATOM
      1 CA         26.0901   -6.3135   -3.0704 C.3       0 UNK        -0.2020 
      2 C          26.0686   -5.6759   -1.6893 C.2       0 UNK         0.4855 
      3 O          25.4449   -6.2151   -0.7755 O.2       0 UNK        -0.5197 
      4 N          26.7425   -4.5288   -1.5297 N.am      1 UNK        -0.4892 
      5 CA         26.8276   -3.7765   -0.2699 C.3       1 UNK         0.0835 
      6 C6         28.1244   -2.9296   -0.1976 C.3       12 UNK        -0.0855 
      7 S7         28.2892   -1.6502   -1.4981 S.3       12 UNK        -0.2931 
      8 C8         30.1070   -1.6090   -1.7256 C.3       12 UNK         0.0378 
      9 C9         30.5908   -2.2521   -3.0260 C.ar      12 UNK        -0.0802 
     10 C10        31.7224   -1.7381   -3.6696 C.ar      12 UNK        -0.0944 
     11 C11        32.2040   -2.3116   -4.8564 C.ar      12 UNK        -0.0787 
     12 C12        31.5167   -3.4014   -5.4048 C.ar      12 UNK        -0.0862 
     13 C13        30.3934   -3.9371   -4.7673 C.ar      12 UNK        -0.0733 
     14 C14        29.9511   -3.3686   -3.5718 C.ar      12 UNK        -0.0832 
     15 C15        29.6881   -5.1648   -5.3317 C.3       12 UNK         0.0240 
     16 S16        28.5490   -4.7780   -6.7021 S.3       12 UNK        -0.2522 
     17 C17        27.2588   -3.7496   -5.9116 C.3       12 UNK        -0.0967 
     18 CA         26.9154   -2.4850   -6.7379 C.3       5 UNK         0.0660 
     19 N          25.6910   -1.8299   -6.2660 N.am      5 UNK        -0.4015 
     20 C          25.0458   -0.8615   -6.9345 C.2       4 UNK         0.4946 
     21 O          25.3792   -0.4549   -8.0475 O.2       4 UNK        -0.5353 
     22 CA         23.8578   -0.1980   -6.2177 C.3       4 UNK         0.0277 
     23 CB         22.5874   -1.0504   -6.3640 C.3       4 UNK        -0.1981 
     24 N          24.1103    0.0704   -4.7983 N.am      4 UNK        -0.4209 
     25 C          25.0944    0.8405   -4.3164 C.2       3 UNK         0.4942 
     26 O          25.9099    1.4156   -5.0357 O.2       3 UNK        -0.5208 
     27 CA         25.2310    0.9796   -2.7877 C.3       3 UNK         0.0250 
     28 CB         24.5394    2.2642   -2.2925 C.3       3 UNK        -0.1990 
     29 N          24.8148   -0.1933   -1.9996 N.am      3 UNK        -0.4232 
     30 C          23.5901   -0.7229   -1.8492 C.2       2 UNK         0.4993 
     31 O          22.5904   -0.2949   -2.4275 O.2       2 UNK        -0.5286 
     32 CA         23.4740   -1.9665   -0.9492 C.3       2 UNK         0.0209 
     33 CB         22.2907   -2.8674   -1.3525 C.3       2 UNK        -0.1931 
     34 N          24.7045   -2.7597   -0.9926 N.am      2 UNK        -0.4546 
     35 C          25.5663   -2.9304    0.0188 C.2       1 UNK         0.5154 
     36 O          25.4077   -2.4419    1.1384 O.2       1 UNK        -0.5181 
     37 C          28.0931   -1.4927   -6.8125 C.2       5 UNK         0.5014 
     38 O          28.8097   -1.4909   -7.8128 O.2       5 UNK        -0.5248 
     39 N          28.2393   -0.6343   -5.7906 N.am      6 UNK        -0.4434 
     40 CA         29.2675    0.4066   -5.7416 C.3       6 UNK         0.0363 
     41 CB         29.2624    1.1063   -4.3740 C.3       6 UNK        -0.1936 
     42 C          29.1168    1.4339   -6.8729 C.2       6 UNK         0.5081 
     43 O          30.1123    1.7921   -7.5021 O.2       6 UNK        -0.5248 
     44 N          27.8721    1.8558   -7.1322 N.am      7 UNK        -0.4718 
     45 CA         27.5045    2.7363   -8.2403 C.3       7 UNK         0.0273 
     46 CB         26.0342    3.1607   -8.0964 C.3       7 UNK        -0.1935 
     47 C          27.7639    2.0958   -9.6138 C.2       7 UNK         0.5018 
     48 O          28.3567    2.7470  -10.4742 O.2       7 UNK        -0.5186 
     49 N          27.3477    0.8319   -9.7861 N.am      8 UNK        -0.4240 
     50 CA         27.5442    0.0510  -11.0118 C.3       8 UNK         0.0235 
     51 CB         26.7535   -1.2641  -10.9233 C.3       8 UNK        -0.2000 
     52 C          29.0237   -0.2279  -11.3255 C.2       8 UNK         0.4941 
     53 O          29.4280   -0.1071  -12.4826 O.2       8 UNK        -0.5273 
     54 N          29.8057   -0.5797  -10.2960 N.am      9 UNK        -0.4262 
     55 CA         31.2443   -0.8379  -10.3949 C.3       9 UNK         0.0264 
     56 CB         31.6922   -1.6388   -9.1603 C.3       9 UNK        -0.1955 
     57 C          32.0974    0.4364  -10.5317 C.2       9 UNK         0.5031 
     58 O          33.2669    0.3219  -10.9017 O.2       9 UNK        -0.5390 
     59 N          31.5229    1.6049  -10.2017 N.am      10 UNK        -0.4204 
     60 CA         32.1823    2.9087  -10.0454 C.3       10 UNK         0.0237 
     61 CB         32.7146    3.4369  -11.3946 C.3       10 UNK        -0.1985 
     62 C          33.2529    2.8576   -8.9372 C.2       10 UNK         0.4970 
     63 O          34.3960    3.2685   -9.1459 O.2       10 UNK        -0.4914 
     64 N          32.8514    2.3047   -7.7871 N.am      11 UNK        -0.4285 
     65 CA         33.7020    2.0089   -6.6265 C.3       11 UNK         0.1007 
     66 C          34.1628    3.2553   -5.8148 C.2       11 UNK         0.5703 
     67 N          33.5663    4.4269   -6.0034 N.am      11 UNK        -0.7361 
     68 O          35.0853    3.1621   -5.0089 O.2       11 UNK        -0.4986 
     69 C69        33.0184    0.9451   -5.7234 C.3       12 UNK        -0.0947 
     70 S70        34.1828   -0.2447   -4.9850 S.3       12 UNK        -0.2240 
     71 C71        33.4861   -1.8386   -5.5535 C.3       12 UNK         0.0194 
     72 H72        26.4031   -7.3548   -2.9971 H         1 UNK         0.0906 
     73 H73        25.0940   -6.2885   -3.5117 H         1 UNK         0.0906 
     74 H74        26.7761   -5.8050   -3.7457 H         1 UNK         0.0906 
     75 H75        27.2269   -4.1141   -2.3103 H         1 UNK         0.3140 
     76 H76        26.8814   -4.5021    0.5454 H         1 UNK         0.1085 
     77 H77        28.2056   -2.4406    0.7753 H         1 UNK         0.0836 
     78 H78        28.9795   -3.6052   -0.2528 H         1 UNK         0.0836 
     79 H79        30.4190   -0.5642   -1.6935 H         1 UNK         0.0731 
     80 H80        30.6089   -2.0901   -0.8856 H         1 UNK         0.0731 
     81 H81        32.2348   -0.8984   -3.2232 H         1 UNK         0.1312 
     82 H82        31.8733   -3.8554   -6.3196 H         1 UNK         0.1406 
     83 H83        29.1078   -3.8047   -3.0607 H         1 UNK         0.1631 
     84 H84        29.1407   -5.6899   -4.5479 H         1 UNK         0.0717 
     85 H85        30.4365   -5.8708   -5.6948 H         1 UNK         0.0717 
     86 H86        26.3700   -4.3753   -5.8155 H         1 UNK         0.0934 
     87 H87        27.5463   -3.4797   -4.8965 H         1 UNK         0.0934 
     88 H88        26.7132   -2.8107   -7.7609 H         1 UNK         0.0739 
     89 H89        25.3407   -2.1014   -5.3601 H         1 UNK         0.3093 
     90 H90        23.6811    0.7639   -6.7036 H         1 UNK         0.0818 
     91 H91        21.7186   -0.5399   -5.9478 H         1 UNK         0.0819 
     92 H92        22.3709   -1.2510   -7.4143 H         1 UNK         0.0819 
     93 H93        22.6826   -2.0129   -5.8599 H         1 UNK         0.0819 
     94 H94        23.4385   -0.2872   -4.1240 H         1 UNK         0.3041 
     95 H95        26.2988    1.0914   -2.5916 H         1 UNK         0.0784 
     96 H96        24.9319    3.1406   -2.8102 H         1 UNK         0.0793 
     97 H97        23.4631    2.2424   -2.4662 H         1 UNK         0.0793 
     98 H98        24.7046    2.4176   -1.2261 H         1 UNK         0.0793 
     99 H99        25.5674   -0.6548   -1.5062 H         1 UNK         0.3024 
    100 H100       23.2908   -1.5999    0.0634 H         1 UNK         0.1171 
    101 H101       21.3425   -2.3350   -1.2658 H         1 UNK         0.0786 
    102 H102       22.2251   -3.7448   -0.7088 H         1 UNK         0.0786 
    103 H103       22.3789   -3.2139   -2.3829 H         1 UNK         0.0786 
    104 H104       24.9259   -3.2016   -1.8730 H         1 UNK         0.2977 
    105 H105       27.5826   -0.6596   -5.0263 H         1 UNK         0.3127 
    106 H106       30.2238   -0.1005   -5.8637 H         1 UNK         0.0770 
    107 H107       28.3517    1.6807   -4.2085 H         1 UNK         0.0814 
    108 H108       30.0982    1.8013   -4.2911 H         1 UNK         0.0814 
    109 H109       29.3547    0.3899   -3.5619 H         1 UNK         0.0814 
    110 H110       27.1212    1.5475   -6.5187 H         1 UNK         0.2983 
    111 H111       28.1260    3.6317   -8.1709 H         1 UNK         0.0947 
    112 H112       25.7436    3.8408   -8.8981 H         1 UNK         0.0806 
    113 H113       25.8629    3.6783   -7.1523 H         1 UNK         0.0806 
    114 H114       25.3598    2.3047   -8.1324 H         1 UNK         0.0806 
    115 H115       26.8291    0.3803   -9.0363 H         1 UNK         0.3000 
    116 H116       27.1379    0.6347  -11.8406 H         1 UNK         0.0850 
    117 H117       26.8705   -1.8536  -11.8336 H         1 UNK         0.0810 
    118 H118       25.6875   -1.0773  -10.7924 H         1 UNK         0.0810 
    119 H119       27.0892   -1.8803  -10.0885 H         1 UNK         0.0810 
    120 H120       29.3812   -0.7298   -9.3806 H         1 UNK         0.3040 
    121 H121       31.4242   -1.4490  -11.2818 H         1 UNK         0.0766 
    122 H122       32.7548   -1.8801   -9.2108 H         1 UNK         0.0812 
    123 H123       31.1488   -2.5804   -9.0781 H         1 UNK         0.0812 
    124 H124       31.5259   -1.0784   -8.2394 H         1 UNK         0.0812 
    125 H125       30.5616    1.5707   -9.8859 H         1 UNK         0.3205 
    126 H126       31.4122    3.6006   -9.7003 H         1 UNK         0.0754 
    127 H127       33.0994    4.4520  -11.2896 H         1 UNK         0.0769 
    128 H128       31.9257    3.4650  -12.1462 H         1 UNK         0.0769 
    129 H129       33.5266    2.8218  -11.7834 H         1 UNK         0.0769 
    130 H130       31.8693    2.0471   -7.6962 H         1 UNK         0.2981 
    131 H131       34.6132    1.5685   -7.0362 H         1 UNK         0.0541 
    132 H132       32.8114    4.5139   -6.6643 H         1 UNK         0.3459 
    133 H133       33.8761    5.2295   -5.4788 H         1 UNK         0.3459 
    134 H134       32.3152    0.3654   -6.3189 H         1 UNK         0.0612 
    135 H135       32.4241    1.4053   -4.9326 H         1 UNK         0.0612 
    136 H136       33.3231   -1.7847   -6.6304 H         1 UNK         0.0624 
    137 H137       34.2487   -2.6033   -5.4013 H         1 UNK         0.0624 
@<TRIPOS>BOND
     1    1    2 1    
     2    1   72 1    
     3    1   73 1    
     4    1   74 1    
     5    2    3 2    
     6    2    4 am   BACKBONE|DICT|INTERRES
     7    4    5 1    
     8    4   75 1    
     9    5    6 1    
    10    5   35 1    
    11    5   76 1    
    12    6    7 1    
    13    6   77 1    
    14    6   78 1    
    15    7    8 1    
    16    8    9 1    
    17    8   79 1    
    18    8   80 1    
    19    9   10 ar   
    20    9   14 ar   
    21   10   11 ar   
    22   10   81 1    
    23   11   12 ar   
    24   11   71 1    
    25   12   13 ar   
    26   12   82 1    
    27   13   14 ar   
    28   13   15 1    
    29   14   83 1    
    30   15   16 1    
    31   15   84 1    
    32   15   85 1    
    33   16   17 1    
    34   17   18 1    
    35   17   86 1    
    36   17   87 1    
    37   18   19 1    
    38   18   37 1    
    39   18   88 1    
    40   19   20 am   BACKBONE|DICT|INTERRES
    41   19   89 1    
    42   20   21 2    
    43   20   22 1    
    44   22   23 1    
    45   22   24 1    
    46   22   90 1    
    47   23   91 1    
    48   23   92 1    
    49   23   93 1    
    50   24   25 am   BACKBONE|DICT|INTERRES
    51   24   94 1    
    52   25   26 2    
    53   25   27 1    
    54   27   28 1    
    55   27   29 1    
    56   27   95 1    
    57   28   96 1    
    58   28   97 1    
    59   28   98 1    
    60   29   30 am   BACKBONE|DICT|INTERRES
    61   29   99 1    
    62   30   31 2    
    63   30   32 1    
    64   32   33 1    
    65   32   34 1    
    66   32  100 1    
    67   33  101 1    
    68   33  102 1    
    69   33  103 1    
    70   34   35 am   BACKBONE|DICT|INTERRES
    71   34  104 1    
    72   35   36 2    
    73   37   38 2    
    74   37   39 am   BACKBONE|DICT|INTERRES
    75   39   40 1    
    76   39  105 1    
    77   40   41 1    
    78   40   42 1    
    79   40  106 1    
    80   41  107 1    
    81   41  108 1    
    82   41  109 1    
    83   42   43 2    
    84   42   44 am   BACKBONE|DICT|INTERRES
    85   44   45 1    
    86   44  110 1    
    87   45   46 1    
    88   45   47 1    
    89   45  111 1    
    90   46  112 1    
    91   46  113 1    
    92   46  114 1    
    93   47   48 2    
    94   47   49 am   BACKBONE|DICT|INTERRES
    95   49   50 1    
    96   49  115 1    
    97   50   51 1    
    98   50   52 1    
    99   50  116 1    
   100   51  117 1    
   101   51  118 1    
   102   51  119 1    
   103   52   53 2    
   104   52   54 am   BACKBONE|DICT|INTERRES
   105   54   55 1    
   106   54  120 1    
   107   55   56 1    
   108   55   57 1    
   109   55  121 1    
   110   56  122 1    
   111   56  123 1    
   112   56  124 1    
   113   57   58 2    
   114   57   59 am   BACKBONE|DICT|INTERRES
   115   59   60 1    
   116   59  125 1    
   117   60   61 1    
   118   60   62 1    
   119   60  126 1    
   120   61  127 1    
   121   61  128 1    
   122   61  129 1    
   123   62   63 2    
   124   62   64 am   BACKBONE|DICT|INTERRES
   125   64   65 1    
   126   64  130 1    
   127   65   66 1    
   128   65   69 1    
   129   65  131 1    
   130   66   67 am   BACKBONE|DICT|INTERRES
   131   66   68 2    
   132   67  132 1    
   133   67  133 1    
   134   69   70 1    
   135   69  134 1    
   136   69  135 1    
   137   70   71 1    
   138   71  136 1    
   139   71  137 1    
@<TRIPOS>SUBSTRUCTURE
     1 UNK         1 GROUP             0       ****    0 ROOT    
