@<TRIPOS>MOLECULE
3R137
137   139    1
SMALL
USER_CHARGES


@<TRIPOS>ATOM
      1 CA         26.3667   -6.6488   -3.7954 C.3       0 UNK        -0.2020 
      2 C          26.1226   -5.5723   -2.7495 C.2       0 UNK         0.4855 
      3 O          24.9667   -5.2740   -2.4478 O.2       0 UNK        -0.5197 
      4 N          27.2025   -4.9876   -2.2090 N.am      1 UNK        -0.4892 
      5 CA         27.2371   -3.9457   -1.1720 C.3       1 UNK         0.0835 
      6 C6         28.6742   -3.4065   -0.9510 C.3       12 UNK        -0.0855 
      7 S7         29.9728   -4.6688   -0.7340 S.3       12 UNK        -0.2931 
      8 C8         31.4117   -3.6295   -0.2890 C.3       12 UNK         0.0378 
      9 C9         31.5485   -2.3973   -1.1789 C.ar      12 UNK        -0.0802 
     10 C10        32.0967   -2.5017   -2.4611 C.ar      12 UNK        -0.0944 
     11 C11        32.1711   -1.3778   -3.2905 C.ar      12 UNK        -0.0787 
     12 C12        31.7014   -0.1450   -2.8293 C.ar      12 UNK        -0.0862 
     13 C13        31.1354   -0.0294   -1.5562 C.ar      12 UNK        -0.0733 
     14 C14        31.0822   -1.1563   -0.7300 C.ar      12 UNK        -0.0832 
     15 C15        30.5723    1.3001   -1.0589 C.3       12 UNK         0.0240 
     16 S16        29.5568    2.1949   -2.2886 S.3       12 UNK        -0.2522 
     17 C17        28.2595    0.9831   -2.7236 C.3       12 UNK        -0.0967 
     18 CA         28.1904    0.7291   -4.2537 C.3       5 UNK         0.0660 
     19 N          27.6861   -0.6155   -4.5595 N.am      5 UNK        -0.4015 
     20 C          27.6583   -1.1752   -5.7784 C.2       4 UNK         0.4946 
     21 O          28.0138   -0.5954   -6.8032 O.2       4 UNK        -0.5353 
     22 CA         27.1008   -2.5997   -5.8802 C.3       4 UNK         0.0277 
     23 CB         28.1230   -3.6242   -5.3633 C.3       4 UNK        -0.1981 
     24 N          25.8396   -2.7429   -5.1497 N.am      4 UNK        -0.4209 
     25 C          24.6280   -2.5245   -5.6806 C.2       3 UNK         0.4942 
     26 O          24.4502   -2.1328   -6.8340 O.2       3 UNK        -0.5208 
     27 CA         23.3990   -2.8113   -4.7982 C.3       3 UNK         0.0250 
     28 CB         22.8392   -4.2099   -5.1051 C.3       3 UNK        -0.1990 
     29 N          23.6857   -2.7152   -3.3656 N.am      3 UNK        -0.4232 
     30 C          23.6961   -1.5633   -2.6790 C.2       2 UNK         0.4993 
     31 O          23.4121   -0.4713   -3.1714 O.2       2 UNK        -0.5286 
     32 CA         24.1350   -1.6281   -1.2018 C.3       2 UNK         0.0209 
     33 CB         22.9159   -1.8262   -0.2869 C.3       2 UNK        -0.1931 
     34 N          25.1354   -2.6650   -0.9130 N.am      2 UNK        -0.4546 
     35 C          26.3219   -2.7572   -1.5277 C.2       1 UNK         0.5154 
     36 O          26.6887   -1.9712   -2.4023 O.2       1 UNK        -0.5181 
     37 C          27.3976    1.8351   -4.9862 C.2       5 UNK         0.5014 
     38 O          27.9708    2.8645   -5.3444 O.2       5 UNK        -0.5248 
     39 N          26.1100    1.5743   -5.2610 N.am      6 UNK        -0.4434 
     40 CA         25.2232    2.4074   -6.0770 C.3       6 UNK         0.0363 
     41 CB         23.8119    1.7985   -6.0542 C.3       6 UNK        -0.1936 
     42 C          25.6968    2.6058   -7.5320 C.2       6 UNK         0.5081 
     43 O          25.3112    3.5977   -8.1510 O.2       6 UNK        -0.5248 
     44 N          26.5270    1.6886   -8.0512 N.am      7 UNK        -0.4718 
     45 CA         27.1498    1.7857   -9.3744 C.3       7 UNK         0.0273 
     46 CB         27.3532    0.3690   -9.9328 C.3       7 UNK        -0.1935 
     47 C          28.4753    2.5742   -9.3588 C.2       7 UNK         0.5018 
     48 O          29.0722    2.7513  -10.4233 O.2       7 UNK        -0.5186 
     49 N          28.9125    3.0392   -8.1762 N.am      8 UNK        -0.4240 
     50 CA         30.1010    3.8580   -7.9213 C.3       8 UNK         0.0235 
     51 CB         29.8819    5.2963   -8.4443 C.3       8 UNK        -0.2000 
     52 C          31.3852    3.1869   -8.4410 C.2       8 UNK         0.4941 
     53 O          31.8234    2.1966   -7.8563 O.2       8 UNK        -0.5273 
     54 N          31.9582    3.7237   -9.5268 N.am      9 UNK        -0.4262 
     55 CA         33.1513    3.1982  -10.1927 C.3       9 UNK         0.0264 
     56 CB         33.6673    4.2390  -11.1995 C.3       9 UNK        -0.1955 
     57 C          32.9280    1.8433  -10.8888 C.2       9 UNK         0.5031 
     58 O          33.8908    1.0918  -11.0469 O.2       9 UNK        -0.5390 
     59 N          31.6820    1.5343  -11.2758 N.am      10 UNK        -0.4204 
     60 CA         31.2976    0.2834  -11.9360 C.3       10 UNK         0.0237 
     61 CB         30.2277    0.5890  -13.0016 C.3       10 UNK        -0.1985 
     62 C          30.8435   -0.7779  -10.9144 C.2       10 UNK         0.4970 
     63 O          29.8465   -1.4630  -11.1451 O.2       10 UNK        -0.4914 
     64 N          31.5780   -0.8902   -9.7997 N.am      11 UNK        -0.4285 
     65 CA         31.3034   -1.8073   -8.6818 C.3       11 UNK         0.1007 
     66 C          31.3879   -3.3231   -9.0331 C.2       11 UNK         0.5703 
     67 N          32.1120   -3.7178  -10.0746 N.am      11 UNK        -0.7361 
     68 O          30.7809   -4.1516   -8.3595 O.2       11 UNK        -0.4986 
     69 C69        32.1941   -1.4570   -7.4575 C.3       12 UNK        -0.0947 
     70 S70        31.3614   -1.7790   -5.8735 S.3       12 UNK        -0.2240 
     71 C71        32.7179   -1.4910   -4.7029 C.3       12 UNK         0.0194 
     72 H72        25.9172   -7.5885   -3.4760 H         1 UNK         0.0906 
     73 H73        25.9134   -6.3600   -4.7433 H         1 UNK         0.0906 
     74 H74        27.4294   -6.8219   -3.9646 H         1 UNK         0.0906 
     75 H75        28.1195   -5.2991   -2.4983 H         1 UNK         0.3140 
     76 H76        26.8876   -4.3955   -0.2408 H         1 UNK         0.1085 
     77 H77        28.6908   -2.7436   -0.0837 H         1 UNK         0.0836 
     78 H78        28.9816   -2.8018   -1.8071 H         1 UNK         0.0836 
     79 H79        32.3188   -4.2322   -0.3542 H         1 UNK         0.0731 
     80 H80        31.3212   -3.3321    0.7570 H         1 UNK         0.0731 
     81 H81        32.4397   -3.4618   -2.8218 H         1 UNK         0.1312 
     82 H82        31.7482    0.7195   -3.4775 H         1 UNK         0.1406 
     83 H83        30.6484   -1.0755    0.2576 H         1 UNK         0.1631 
     84 H84        31.4037    1.9403   -0.7615 H         1 UNK         0.0717 
     85 H85        29.9653    1.1490   -0.1649 H         1 UNK         0.0717 
     86 H86        28.4764    0.0510   -2.2003 H         1 UNK         0.0934 
     87 H87        27.2991    1.3188   -2.3272 H         1 UNK         0.0934 
     88 H88        29.2075    0.7533   -4.6521 H         1 UNK         0.0739 
     89 H89        27.3444   -1.1554   -3.7634 H         1 UNK         0.3093 
     90 H90        26.9288   -2.8142   -6.9376 H         1 UNK         0.0818 
     91 H91        28.4011   -3.4401   -4.3251 H         1 UNK         0.0819 
     92 H92        27.7393   -4.6403   -5.4403 H         1 UNK         0.0819 
     93 H93        29.0371   -3.5875   -5.9565 H         1 UNK         0.0819 
     94 H94        25.9039   -2.9719   -4.1669 H         1 UNK         0.3041 
     95 H95        22.6314   -2.0783   -5.0570 H         1 UNK         0.0784 
     96 H96        22.5829   -4.3051   -6.1613 H         1 UNK         0.0793 
     97 H97        23.5596   -4.9950   -4.8724 H         1 UNK         0.0793 
     98 H98        21.9323   -4.4078   -4.5335 H         1 UNK         0.0793 
     99 H99        23.9591   -3.5723   -2.8921 H         1 UNK         0.3024 
    100 H100       24.5892   -0.6633   -0.9647 H         1 UNK         0.1171 
    101 H101       23.1943   -1.7655    0.7654 H         1 UNK         0.0786 
    102 H102       22.1642   -1.0558   -0.4657 H         1 UNK         0.0786 
    103 H103       22.4386   -2.7926   -0.4543 H         1 UNK         0.0786 
    104 H104       24.8736   -3.3769   -0.2457 H         1 UNK         0.2977 
    105 H105       25.7234    0.7028   -4.9277 H         1 UNK         0.3127 
    106 H106       25.1812    3.3947   -5.6125 H         1 UNK         0.0770 
    107 H107       23.7988    0.7952   -6.4829 H         1 UNK         0.0814 
    108 H108       23.1134    2.4081   -6.6291 H         1 UNK         0.0814 
    109 H109       23.4222    1.7336   -5.0380 H         1 UNK         0.0814 
    110 H110       26.8323    0.9075   -7.4770 H         1 UNK         0.2983 
    111 H111       26.4735    2.3144  -10.0497 H         1 UNK         0.0947 
    112 H112       27.6788    0.4024  -10.9722 H         1 UNK         0.0806 
    113 H113       26.4299   -0.2095   -9.9040 H         1 UNK         0.0806 
    114 H114       28.1109   -0.1806   -9.3743 H         1 UNK         0.0806 
    115 H115       28.3722    2.8129   -7.3474 H         1 UNK         0.3000 
    116 H116       30.2072    3.9151   -6.8367 H         1 UNK         0.0850 
    117 H117       30.7481    5.9276   -8.2409 H         1 UNK         0.0810 
    118 H118       29.0288    5.7607   -7.9491 H         1 UNK         0.0810 
    119 H119       29.6893    5.3261   -9.5173 H         1 UNK         0.0810 
    120 H120       31.5135    4.5248   -9.9517 H         1 UNK         0.3040 
    121 H121       33.9202    3.0493   -9.4315 H         1 UNK         0.0766 
    122 H122       33.9117    5.1809  -10.7080 H         1 UNK         0.0812 
    123 H123       32.9334    4.4459  -11.9795 H         1 UNK         0.0812 
    124 H124       34.5755    3.8882  -11.6920 H         1 UNK         0.0812 
    125 H125       30.9204    2.1644  -11.0371 H         1 UNK         0.3205 
    126 H126       32.1599   -0.1368  -12.4577 H         1 UNK         0.0754 
    127 H127       29.9389   -0.3134  -13.5422 H         1 UNK         0.0769 
    128 H128       30.5994    1.2998  -13.7398 H         1 UNK         0.0769 
    129 H129       29.3252    1.0110  -12.5600 H         1 UNK         0.0769 
    130 H130       32.3894   -0.2971   -9.7013 H         1 UNK         0.2981 
    131 H131       30.2629   -1.6183   -8.4084 H         1 UNK         0.0541 
    132 H132       32.6115   -3.0470  -10.6357 H         1 UNK         0.3459 
    133 H133       32.1565   -4.6989  -10.3001 H         1 UNK         0.3459 
    134 H134       33.1481   -1.9870   -7.4894 H         1 UNK         0.0612 
    135 H135       32.4432   -0.3950   -7.4587 H         1 UNK         0.0612 
    136 H136       33.2466   -0.5751   -4.9720 H         1 UNK         0.0624 
    137 H137       33.4408   -2.3051   -4.7742 H         1 UNK         0.0624 
@<TRIPOS>BOND
     1    1    2 1    
     2    1   72 1    
     3    1   73 1    
     4    1   74 1    
     5    2    3 2    
     6    2    4 am   BACKBONE|DICT|INTERRES
     7    4    5 1    
     8    4   75 1    
     9    5    6 1    
    10    5   35 1    
    11    5   76 1    
    12    6    7 1    
    13    6   77 1    
    14    6   78 1    
    15    7    8 1    
    16    8    9 1    
    17    8   79 1    
    18    8   80 1    
    19    9   10 ar   
    20    9   14 ar   
    21   10   11 ar   
    22   10   81 1    
    23   11   12 ar   
    24   11   71 1    
    25   12   13 ar   
    26   12   82 1    
    27   13   14 ar   
    28   13   15 1    
    29   14   83 1    
    30   15   16 1    
    31   15   84 1    
    32   15   85 1    
    33   16   17 1    
    34   17   18 1    
    35   17   86 1    
    36   17   87 1    
    37   18   19 1    
    38   18   37 1    
    39   18   88 1    
    40   19   20 am   BACKBONE|DICT|INTERRES
    41   19   89 1    
    42   20   21 2    
    43   20   22 1    
    44   22   23 1    
    45   22   24 1    
    46   22   90 1    
    47   23   91 1    
    48   23   92 1    
    49   23   93 1    
    50   24   25 am   BACKBONE|DICT|INTERRES
    51   24   94 1    
    52   25   26 2    
    53   25   27 1    
    54   27   28 1    
    55   27   29 1    
    56   27   95 1    
    57   28   96 1    
    58   28   97 1    
    59   28   98 1    
    60   29   30 am   BACKBONE|DICT|INTERRES
    61   29   99 1    
    62   30   31 2    
    63   30   32 1    
    64   32   33 1    
    65   32   34 1    
    66   32  100 1    
    67   33  101 1    
    68   33  102 1    
    69   33  103 1    
    70   34   35 am   BACKBONE|DICT|INTERRES
    71   34  104 1    
    72   35   36 2    
    73   37   38 2    
    74   37   39 am   BACKBONE|DICT|INTERRES
    75   39   40 1    
    76   39  105 1    
    77   40   41 1    
    78   40   42 1    
    79   40  106 1    
    80   41  107 1    
    81   41  108 1    
    82   41  109 1    
    83   42   43 2    
    84   42   44 am   BACKBONE|DICT|INTERRES
    85   44   45 1    
    86   44  110 1    
    87   45   46 1    
    88   45   47 1    
    89   45  111 1    
    90   46  112 1    
    91   46  113 1    
    92   46  114 1    
    93   47   48 2    
    94   47   49 am   BACKBONE|DICT|INTERRES
    95   49   50 1    
    96   49  115 1    
    97   50   51 1    
    98   50   52 1    
    99   50  116 1    
   100   51  117 1    
   101   51  118 1    
   102   51  119 1    
   103   52   53 2    
   104   52   54 am   BACKBONE|DICT|INTERRES
   105   54   55 1    
   106   54  120 1    
   107   55   56 1    
   108   55   57 1    
   109   55  121 1    
   110   56  122 1    
   111   56  123 1    
   112   56  124 1    
   113   57   58 2    
   114   57   59 am   BACKBONE|DICT|INTERRES
   115   59   60 1    
   116   59  125 1    
   117   60   61 1    
   118   60   62 1    
   119   60  126 1    
   120   61  127 1    
   121   61  128 1    
   122   61  129 1    
   123   62   63 2    
   124   62   64 am   BACKBONE|DICT|INTERRES
   125   64   65 1    
   126   64  130 1    
   127   65   66 1    
   128   65   69 1    
   129   65  131 1    
   130   66   67 am   BACKBONE|DICT|INTERRES
   131   66   68 2    
   132   67  132 1    
   133   67  133 1    
   134   69   70 1    
   135   69  134 1    
   136   69  135 1    
   137   70   71 1    
   138   71  136 1    
   139   71  137 1    
@<TRIPOS>SUBSTRUCTURE
     1 UNK         1 GROUP             0       ****    0 ROOT    
