@<TRIPOS>MOLECULE
3R137
137   139    1
SMALL
USER_CHARGES


@<TRIPOS>ATOM
      1 CA         26.4036   -6.3350   -1.3804 C.3       0 UNK        -0.2020 
      2 C          27.1581   -6.6300   -2.6754 C.2       0 UNK         0.4855 
      3 O          26.9763   -7.7059   -3.2422 O.2       0 UNK        -0.5197 
      4 N          28.0204   -5.7346   -3.1779 N.am      1 UNK        -0.4892 
      5 CA         28.3078   -4.3823   -2.6811 C.3       1 UNK         0.0835 
      6 C6         29.5607   -3.7915   -3.3708 C.3       12 UNK        -0.0855 
      7 S7         31.0894   -4.6649   -2.8645 S.3       12 UNK        -0.2931 
      8 C8         31.7060   -3.6583   -1.4689 C.3       12 UNK         0.0378 
      9 C9         32.2906   -2.3421   -1.9561 C.ar      12 UNK        -0.0802 
     10 C10        33.6183   -2.2667   -2.3809 C.ar      12 UNK        -0.0944 
     11 C11        34.1126   -1.0866   -2.9446 C.ar      12 UNK        -0.0787 
     12 C12        33.2656    0.0204   -3.0875 C.ar      12 UNK        -0.0862 
     13 C13        31.9349   -0.0410   -2.6587 C.ar      12 UNK        -0.0733 
     14 C14        31.4806   -1.2102   -2.0384 C.ar      12 UNK        -0.0832 
     15 C15        30.9834    1.1309   -2.9120 C.3       12 UNK         0.0240 
     16 S16        29.2942    0.5597   -3.3118 S.3       12 UNK        -0.2522 
     17 C17        28.4315    2.0416   -3.9331 C.3       12 UNK        -0.0967 
     18 CA         27.9702    1.8608   -5.4029 C.3       5 UNK         0.0660 
     19 N          27.3119    0.5718   -5.6405 N.am      5 UNK        -0.4015 
     20 C          27.1851   -0.0054   -6.8425 C.2       4 UNK         0.4946 
     21 O          27.6209    0.4942   -7.8797 O.2       4 UNK        -0.5353 
     22 CA         26.4410   -1.3509   -6.9175 C.3       4 UNK         0.0277 
     23 CB         27.4354   -2.5134   -6.7923 C.3       4 UNK        -0.1981 
     24 N          25.3944   -1.4921   -5.9035 N.am      4 UNK        -0.4209 
     25 C          24.3318   -0.6794   -5.7995 C.2       3 UNK         0.4942 
     26 O          24.0816    0.2168   -6.6051 O.2       3 UNK        -0.5208 
     27 CA         23.4305   -0.8367   -4.5629 C.3       3 UNK         0.0250 
     28 CB         22.1873   -1.6701   -4.9103 C.3       3 UNK        -0.1990 
     29 N          24.0946   -1.4209   -3.3928 N.am      3 UNK        -0.4232 
     30 C          25.2011   -0.9546   -2.7938 C.2       2 UNK         0.4993 
     31 O          25.8205    0.0370   -3.1808 O.2       2 UNK        -0.5286 
     32 CA         25.7157   -1.7355   -1.5695 C.3       2 UNK         0.0209 
     33 CB         24.6297   -2.6046   -0.8945 C.3       2 UNK        -0.1931 
     34 N          26.9035   -2.5594   -1.8409 N.am      2 UNK        -0.4546 
     35 C          27.0795   -3.4542   -2.8266 C.2       1 UNK         0.5154 
     36 O          26.3142   -3.5920   -3.7852 O.2       1 UNK        -0.5181 
     37 C          27.0687    3.0202   -5.8626 C.2       5 UNK         0.5014 
     38 O          27.5697    3.9740   -6.4580 O.2       5 UNK        -0.5248 
     39 N          25.7518    2.8925   -5.6350 N.am      6 UNK        -0.4434 
     40 CA         24.7271    3.8190   -6.1271 C.3       6 UNK         0.0363 
     41 CB         23.3864    3.5231   -5.4360 C.3       6 UNK        -0.1936 
     42 C          24.5776    3.7669   -7.6583 C.2       6 UNK         0.5081 
     43 O          24.3838    4.8079   -8.2854 O.2       6 UNK        -0.5248 
     44 N          24.7137    2.5643   -8.2348 N.am      7 UNK        -0.4718 
     45 CA         24.7390    2.3153   -9.6803 C.3       7 UNK         0.0273 
     46 CB         24.4730    0.8209   -9.9268 C.3       7 UNK        -0.1935 
     47 C          26.0513    2.7451  -10.3689 C.2       7 UNK         0.5018 
     48 O          26.1152    2.7039  -11.5980 O.2       7 UNK        -0.5186 
     49 N          27.0685    3.1247   -9.5797 N.am      8 UNK        -0.4240 
     50 CA         28.4206    3.5347   -9.9809 C.3       8 UNK         0.0235 
     51 CB         28.3867    4.7997  -10.8652 C.3       8 UNK        -0.2000 
     52 C          29.2704    2.4001  -10.5901 C.2       8 UNK         0.4941 
     53 O          30.2590    2.6807  -11.2703 O.2       8 UNK        -0.5273 
     54 N          28.9062    1.1432  -10.3038 N.am      9 UNK        -0.4262 
     55 CA         29.7187   -0.0445  -10.5757 C.3       9 UNK         0.0264 
     56 CB         28.8005   -1.2699  -10.7126 C.3       9 UNK        -0.1955 
     57 C          30.7630   -0.2632   -9.4661 C.2       9 UNK         0.5031 
     58 O          31.8648   -0.7294   -9.7579 O.2       9 UNK        -0.5390 
     59 N          30.3996    0.1106   -8.2298 N.am      10 UNK        -0.4204 
     60 CA         31.1990    0.0743   -7.0050 C.3       10 UNK         0.0237 
     61 CB         32.3565    1.0979   -7.0720 C.3       10 UNK        -0.1985 
     62 C          31.6150   -1.3558   -6.6208 C.2       10 UNK         0.4970 
     63 O          30.7368   -2.1897   -6.4009 O.2       10 UNK        -0.4914 
     64 N          32.9245   -1.5849   -6.4866 N.am      11 UNK        -0.4285 
     65 CA         33.5404   -2.7846   -5.9124 C.3       11 UNK         0.1007 
     66 C          33.1863   -4.0889   -6.6760 C.2       11 UNK         0.5703 
     67 N          32.6850   -5.1046   -5.9858 N.am      11 UNK        -0.7361 
     68 O          33.4066   -4.1989   -7.8806 O.2       11 UNK        -0.4986 
     69 C69        35.0824   -2.6247   -5.7584 C.3       12 UNK        -0.0947 
     70 S70        35.6469   -0.9574   -5.2513 S.3       12 UNK        -0.2240 
     71 C71        35.5512   -1.0256   -3.4357 C.3       12 UNK         0.0194 
     72 H72        27.0473   -5.8885   -0.6242 H         1 UNK         0.0906 
     73 H73        25.5637   -5.6681   -1.5706 H         1 UNK         0.0906 
     74 H74        26.0037   -7.2572   -0.9590 H         1 UNK         0.0906 
     75 H75        28.4997   -5.9736   -4.0336 H         1 UNK         0.3140 
     76 H76        28.5307   -4.4645   -1.6158 H         1 UNK         0.1085 
     77 H77        29.6567   -2.7262   -3.1740 H         1 UNK         0.0836 
     78 H78        29.4697   -3.8697   -4.4558 H         1 UNK         0.0836 
     79 H79        32.4709   -4.2249   -0.9358 H         1 UNK         0.0731 
     80 H80        30.9009   -3.4850   -0.7532 H         1 UNK         0.0731 
     81 H81        34.2531   -3.1396   -2.3113 H         1 UNK         0.1312 
     82 H82        33.6397    0.9191   -3.5588 H         1 UNK         0.1406 
     83 H83        30.4637   -1.2666   -1.6785 H         1 UNK         0.1631 
     84 H84        31.3515    1.7392   -3.7397 H         1 UNK         0.0717 
     85 H85        30.9523    1.7715   -2.0299 H         1 UNK         0.0717 
     86 H86        27.5767    2.2198   -3.2773 H         1 UNK         0.0934 
     87 H87        29.0786    2.9154   -3.8377 H         1 UNK         0.0934 
     88 H88        28.8626    1.8998   -6.0289 H         1 UNK         0.0739 
     89 H89        26.9102    0.1266   -4.8198 H         1 UNK         0.3093 
     90 H90        25.9639   -1.4123   -7.8970 H         1 UNK         0.0818 
     91 H91        28.1981   -2.4646   -7.5704 H         1 UNK         0.0819 
     92 H92        27.9538   -2.4944   -5.8332 H         1 UNK         0.0819 
     93 H93        26.9373   -3.4785   -6.8852 H         1 UNK         0.0819 
     94 H94        25.5404   -2.1990   -5.1893 H         1 UNK         0.3041 
     95 H95        23.1024    0.1653   -4.2790 H         1 UNK         0.0784 
     96 H96        21.6578   -1.2441   -5.7640 H         1 UNK         0.0793 
     97 H97        22.4493   -2.6970   -5.1685 H         1 UNK         0.0793 
     98 H98        21.4831   -1.7005   -4.0785 H         1 UNK         0.0793 
     99 H99        23.6810   -2.2624   -3.0183 H         1 UNK         0.3024 
    100 H100       26.0220   -0.9759   -0.8478 H         1 UNK         0.1171 
    101 H101       24.9929   -3.0195    0.0460 H         1 UNK         0.0786 
    102 H102       23.7417   -2.0165   -0.6575 H         1 UNK         0.0786 
    103 H103       24.3193   -3.4420   -1.5203 H         1 UNK         0.0786 
    104 H104       27.6277   -2.4842   -1.1402 H         1 UNK         0.2977 
    105 H105       25.4248    2.0636   -5.1584 H         1 UNK         0.3127 
    106 H106       25.0328    4.8325   -5.8581 H         1 UNK         0.0770 
    107 H107       23.0199    2.5229   -5.6691 H         1 UNK         0.0814 
    108 H108       22.6209    4.2311   -5.7564 H         1 UNK         0.0814 
    109 H109       23.4704    3.6067   -4.3524 H         1 UNK         0.0814 
    110 H110       24.7728    1.7464   -7.6342 H         1 UNK         0.2983 
    111 H111       23.9311    2.8886  -10.1399 H         1 UNK         0.0947 
    112 H112       24.3988    0.6063  -10.9937 H         1 UNK         0.0806 
    113 H113       23.5380    0.5009   -9.4664 H         1 UNK         0.0806 
    114 H114       25.2743    0.2005   -9.5258 H         1 UNK         0.0806 
    115 H115       26.9047    3.1077   -8.5815 H         1 UNK         0.3000 
    116 H116       28.9256    3.8056   -9.0523 H         1 UNK         0.0850 
    117 H117       29.3902    5.2005  -11.0135 H         1 UNK         0.0810 
    118 H118       27.7898    5.5881  -10.4067 H         1 UNK         0.0810 
    119 H119       27.9725    4.5945  -11.8526 H         1 UNK         0.0810 
    120 H120       28.1181    1.0111   -9.6762 H         1 UNK         0.3040 
    121 H121       30.2514    0.0905  -11.5196 H         1 UNK         0.0766 
    122 H122       28.1005   -1.1474  -11.5392 H         1 UNK         0.0812 
    123 H123       28.2193   -1.4460   -9.8073 H         1 UNK         0.0812 
    124 H124       29.3812   -2.1720  -10.9095 H         1 UNK         0.0812 
    125 H125       29.4288    0.3908   -8.1067 H         1 UNK         0.3205 
    126 H126       30.5383    0.3937   -6.2003 H         1 UNK         0.0754 
    127 H127       33.0734    0.8611   -7.8590 H         1 UNK         0.0769 
    128 H128       32.8995    1.1454   -6.1270 H         1 UNK         0.0769 
    129 H129       31.9761    2.1007   -7.2676 H         1 UNK         0.0769 
    130 H130       33.5683   -0.8413   -6.7097 H         1 UNK         0.2981 
    131 H131       33.1141   -2.8742   -4.9145 H         1 UNK         0.0541 
    132 H132       32.4719   -5.0112   -5.0033 H         1 UNK         0.3459 
    133 H133       32.4661   -5.9624   -6.4668 H         1 UNK         0.3459 
    134 H134       35.4669   -3.3613   -5.0511 H         1 UNK         0.0612 
    135 H135       35.5789   -2.8354   -6.7077 H         1 UNK         0.0612 
    136 H136       36.0297   -0.1352   -3.0257 H         1 UNK         0.0624 
    137 H137       36.1286   -1.8782   -3.0749 H         1 UNK         0.0624 
@<TRIPOS>BOND
     1    1    2 1    
     2    1   72 1    
     3    1   73 1    
     4    1   74 1    
     5    2    3 2    
     6    2    4 am   BACKBONE|DICT|INTERRES
     7    4    5 1    
     8    4   75 1    
     9    5    6 1    
    10    5   35 1    
    11    5   76 1    
    12    6    7 1    
    13    6   77 1    
    14    6   78 1    
    15    7    8 1    
    16    8    9 1    
    17    8   79 1    
    18    8   80 1    
    19    9   10 ar   
    20    9   14 ar   
    21   10   11 ar   
    22   10   81 1    
    23   11   12 ar   
    24   11   71 1    
    25   12   13 ar   
    26   12   82 1    
    27   13   14 ar   
    28   13   15 1    
    29   14   83 1    
    30   15   16 1    
    31   15   84 1    
    32   15   85 1    
    33   16   17 1    
    34   17   18 1    
    35   17   86 1    
    36   17   87 1    
    37   18   19 1    
    38   18   37 1    
    39   18   88 1    
    40   19   20 am   BACKBONE|DICT|INTERRES
    41   19   89 1    
    42   20   21 2    
    43   20   22 1    
    44   22   23 1    
    45   22   24 1    
    46   22   90 1    
    47   23   91 1    
    48   23   92 1    
    49   23   93 1    
    50   24   25 am   BACKBONE|DICT|INTERRES
    51   24   94 1    
    52   25   26 2    
    53   25   27 1    
    54   27   28 1    
    55   27   29 1    
    56   27   95 1    
    57   28   96 1    
    58   28   97 1    
    59   28   98 1    
    60   29   30 am   BACKBONE|DICT|INTERRES
    61   29   99 1    
    62   30   31 2    
    63   30   32 1    
    64   32   33 1    
    65   32   34 1    
    66   32  100 1    
    67   33  101 1    
    68   33  102 1    
    69   33  103 1    
    70   34   35 am   BACKBONE|DICT|INTERRES
    71   34  104 1    
    72   35   36 2    
    73   37   38 2    
    74   37   39 am   BACKBONE|DICT|INTERRES
    75   39   40 1    
    76   39  105 1    
    77   40   41 1    
    78   40   42 1    
    79   40  106 1    
    80   41  107 1    
    81   41  108 1    
    82   41  109 1    
    83   42   43 2    
    84   42   44 am   BACKBONE|DICT|INTERRES
    85   44   45 1    
    86   44  110 1    
    87   45   46 1    
    88   45   47 1    
    89   45  111 1    
    90   46  112 1    
    91   46  113 1    
    92   46  114 1    
    93   47   48 2    
    94   47   49 am   BACKBONE|DICT|INTERRES
    95   49   50 1    
    96   49  115 1    
    97   50   51 1    
    98   50   52 1    
    99   50  116 1    
   100   51  117 1    
   101   51  118 1    
   102   51  119 1    
   103   52   53 2    
   104   52   54 am   BACKBONE|DICT|INTERRES
   105   54   55 1    
   106   54  120 1    
   107   55   56 1    
   108   55   57 1    
   109   55  121 1    
   110   56  122 1    
   111   56  123 1    
   112   56  124 1    
   113   57   58 2    
   114   57   59 am   BACKBONE|DICT|INTERRES
   115   59   60 1    
   116   59  125 1    
   117   60   61 1    
   118   60   62 1    
   119   60  126 1    
   120   61  127 1    
   121   61  128 1    
   122   61  129 1    
   123   62   63 2    
   124   62   64 am   BACKBONE|DICT|INTERRES
   125   64   65 1    
   126   64  130 1    
   127   65   66 1    
   128   65   69 1    
   129   65  131 1    
   130   66   67 am   BACKBONE|DICT|INTERRES
   131   66   68 2    
   132   67  132 1    
   133   67  133 1    
   134   69   70 1    
   135   69  134 1    
   136   69  135 1    
   137   70   71 1    
   138   71  136 1    
   139   71  137 1    
@<TRIPOS>SUBSTRUCTURE
     1 UNK         1 GROUP             0       ****    0 ROOT    
