@<TRIPOS>MOLECULE
3R137
137   139    1
SMALL
USER_CHARGES


@<TRIPOS>ATOM
      1 CA         24.8807   -6.3638   -7.7744 C.3       0 UNK        -0.2020 
      2 C          24.7880   -6.0147   -6.2964 C.2       0 UNK         0.4855 
      3 O          24.0885   -6.6983   -5.5479 O.2       0 UNK        -0.5197 
      4 N          25.4946   -4.9608   -5.8695 N.am      1 UNK        -0.4892 
      5 CA         25.4579   -4.4304   -4.5028 C.3       1 UNK         0.0835 
      6 C6         26.6728   -3.5030   -4.2319 C.3       12 UNK        -0.0855 
      7 S7         27.2052   -3.5401   -2.4883 S.3       12 UNK        -0.2931 
      8 C8         28.7244   -4.5413   -2.5935 C.3       12 UNK         0.0378 
      9 C9         29.9093   -3.7167   -3.0768 C.ar      12 UNK        -0.0802 
     10 C10        30.2818   -3.7205   -4.4250 C.ar      12 UNK        -0.0944 
     11 C11        31.3647   -2.9537   -4.8650 C.ar      12 UNK        -0.0787 
     12 C12        32.0925   -2.1963   -3.9422 C.ar      12 UNK        -0.0862 
     13 C13        31.7211   -2.1724   -2.5951 C.ar      12 UNK        -0.0733 
     14 C14        30.6374   -2.9457   -2.1667 C.ar      12 UNK        -0.0832 
     15 C15        32.4698   -1.2892   -1.6074 C.3       12 UNK         0.0240 
     16 S16        31.3814   -0.0290   -0.8665 S.3       12 UNK        -0.2522 
     17 C17        31.0258    1.0746   -2.2812 C.3       12 UNK        -0.0967 
     18 CA         29.8200    0.6340   -3.1642 C.3       5 UNK         0.0660 
     19 N          28.6373    0.2186   -2.4047 N.am      5 UNK        -0.4015 
     20 C          27.8566    0.9893   -1.6380 C.2       4 UNK         0.4946 
     21 O          28.0337    2.1928   -1.4376 O.2       4 UNK        -0.5353 
     22 CA         26.6377    0.2804   -1.0236 C.3       4 UNK         0.0277 
     23 CB         26.4308    0.6938    0.4441 C.3       4 UNK        -0.1981 
     24 N          25.3929    0.5083   -1.7653 N.am      4 UNK        -0.4209 
     25 C          25.1946    0.3611   -3.0835 C.2       3 UNK         0.4942 
     26 O          26.0741    0.0697   -3.8972 O.2       3 UNK        -0.5208 
     27 CA         23.7368    0.4686   -3.5568 C.3       3 UNK         0.0250 
     28 CB         23.6324    0.9757   -5.0063 C.3       3 UNK        -0.1990 
     29 N          23.1414   -0.8616   -3.4768 N.am      3 UNK        -0.4232 
     30 C          22.7350   -1.4637   -2.3530 C.2       2 UNK         0.4993 
     31 O          22.5983   -0.8794   -1.2774 O.2       2 UNK        -0.5286 
     32 CA         22.5097   -2.9850   -2.4220 C.3       2 UNK         0.0209 
     33 CB         21.1883   -3.3365   -3.1350 C.3       2 UNK        -0.1931 
     34 N          23.6617   -3.7134   -2.9847 N.am      2 UNK        -0.4546 
     35 C          24.1276   -3.6933   -4.2428 C.2       1 UNK         0.5154 
     36 O          23.5878   -3.0726   -5.1634 O.2       1 UNK        -0.5181 
     37 C          29.4941    1.6621   -4.2750 C.2       5 UNK         0.5014 
     38 O          30.3574    2.4685   -4.6252 O.2       5 UNK        -0.5248 
     39 N          28.2670    1.6244   -4.8143 N.am      6 UNK        -0.4434 
     40 CA         27.7683    2.5669   -5.8193 C.3       6 UNK         0.0363 
     41 CB         26.9620    3.6704   -5.1089 C.3       6 UNK        -0.1936 
     42 C          26.9473    1.8797   -6.9244 C.2       6 UNK         0.5081 
     43 O          26.3293    2.5764   -7.7302 O.2       6 UNK        -0.5248 
     44 N          26.9420    0.5390   -6.9613 N.am      7 UNK        -0.4718 
     45 CA         26.1957   -0.2623   -7.9391 C.3       7 UNK         0.0273 
     46 CB         26.1280   -1.7170   -7.4519 C.3       7 UNK        -0.1935 
     47 C          26.7575   -0.1960   -9.3709 C.2       7 UNK         0.5018 
     48 O          26.0149   -0.4542  -10.3193 O.2       7 UNK        -0.5186 
     49 N          28.0415    0.1478   -9.5068 N.am      8 UNK        -0.4240 
     50 CA         28.7437    0.3474  -10.7684 C.3       8 UNK         0.0235 
     51 CB         29.2903   -0.9991  -11.2779 C.3       8 UNK        -0.2000 
     52 C          29.8836    1.3376  -10.5217 C.2       8 UNK         0.4941 
     53 O          30.3457    1.4582   -9.3848 O.2       8 UNK        -0.5273 
     54 N          30.3631    1.9866  -11.5920 N.am      9 UNK        -0.4262 
     55 CA         31.5050    2.9123  -11.5579 C.3       9 UNK         0.0264 
     56 CB         31.6849    3.5592  -12.9406 C.3       9 UNK        -0.1955 
     57 C          32.8170    2.2504  -11.0955 C.2       9 UNK         0.5031 
     58 O          33.6396    2.9089  -10.4573 O.2       9 UNK        -0.5390 
     59 N          32.9587    0.9468  -11.3767 N.am      10 UNK        -0.4204 
     60 CA         34.0511    0.0863  -10.9172 C.3       10 UNK         0.0237 
     61 CB         33.9199   -1.2896  -11.5914 C.3       10 UNK        -0.1985 
     62 C          34.1265   -0.0743   -9.3862 C.2       10 UNK         0.4970 
     63 O          35.2001   -0.4043   -8.8808 O.2       10 UNK        -0.4914 
     64 N          33.0131    0.1617   -8.6773 N.am      11 UNK        -0.4285 
     65 CA         32.9569    0.1665   -7.2092 C.3       11 UNK         0.1007 
     66 C          33.5406    1.4537   -6.5565 C.2       11 UNK         0.5703 
     67 N          33.8490    2.5082   -7.3053 N.am      11 UNK        -0.7361 
     68 O          33.7442    1.4830   -5.3453 O.2       11 UNK        -0.4986 
     69 C69        31.5305   -0.1324   -6.6782 C.3       12 UNK        -0.0947 
     70 S70        30.8200   -1.6990   -7.2906 S.3       12 UNK        -0.2240 
     71 C71        31.7476   -2.9475   -6.3379 C.3       12 UNK         0.0194 
     72 H72        25.2658   -7.3757   -7.8978 H         1 UNK         0.0906 
     73 H73        23.8933   -6.3166   -8.2328 H         1 UNK         0.0906 
     74 H74        25.5378   -5.6827   -8.3152 H         1 UNK         0.0906 
     75 H75        26.0198   -4.4172   -6.5380 H         1 UNK         0.3140 
     76 H76        25.5105   -5.2895   -3.8293 H         1 UNK         0.1085 
     77 H77        27.5147   -3.7963   -4.8569 H         1 UNK         0.0836 
     78 H78        26.4670   -2.4678   -4.5062 H         1 UNK         0.0836 
     79 H79        28.9439   -4.9490   -1.6055 H         1 UNK         0.0731 
     80 H80        28.5587   -5.4016   -3.2442 H         1 UNK         0.0731 
     81 H81        29.7285   -4.3160   -5.1376 H         1 UNK         0.1312 
     82 H82        32.9311   -1.6020   -4.2791 H         1 UNK         0.1406 
     83 H83        30.3467   -2.9277   -1.1247 H         1 UNK         0.1631 
     84 H84        33.3210   -0.7972   -2.0809 H         1 UNK         0.0717 
     85 H85        32.8778   -1.9146   -0.8123 H         1 UNK         0.0717 
     86 H86        30.8413    2.0702   -1.8733 H         1 UNK         0.0934 
     87 H87        31.9279    1.1647   -2.8900 H         1 UNK         0.0934 
     88 H88        30.1193   -0.2607   -3.7060 H         1 UNK         0.0739 
     89 H89        28.3696   -0.7483   -2.5278 H         1 UNK         0.3093 
     90 H90        26.8245   -0.7953   -1.0368 H         1 UNK         0.0818 
     91 H91        25.6432    0.1060    0.9161 H         1 UNK         0.0819 
     92 H92        27.3414    0.5387    1.0245 H         1 UNK         0.0819 
     93 H93        26.1634    1.7476    0.5332 H         1 UNK         0.0819 
     94 H94        24.5785    0.7001   -1.1983 H         1 UNK         0.3041 
     95 H95        23.1943    1.1590   -2.9073 H         1 UNK         0.0784 
     96 H96        22.5920    1.0749   -5.3157 H         1 UNK         0.0793 
     97 H97        24.0981    1.9555   -5.1139 H         1 UNK         0.0793 
     98 H98        24.1246    0.3013   -5.7078 H         1 UNK         0.0793 
     99 H99        23.2619   -1.4610   -4.2904 H         1 UNK         0.3024 
    100 H100       22.4190   -3.3292   -1.3900 H         1 UNK         0.1171 
    101 H101       21.1683   -2.9889   -4.1681 H         1 UNK         0.0786 
    102 H102       20.3408   -2.8761   -2.6256 H         1 UNK         0.0786 
    103 H103       21.0165   -4.4129   -3.1410 H         1 UNK         0.0786 
    104 H104       24.2138   -4.2131   -2.3001 H         1 UNK         0.2977 
    105 H105       27.5790    0.9674   -4.4448 H         1 UNK         0.3127 
    106 H106       28.6086    3.0361   -6.3354 H         1 UNK         0.0770 
    107 H107       26.1065    3.2588   -4.5733 H         1 UNK         0.0814 
    108 H108       26.5841    4.4074   -5.8186 H         1 UNK         0.0814 
    109 H109       27.5792    4.2059   -4.3873 H         1 UNK         0.0814 
    110 H110       27.4666    0.0337   -6.2628 H         1 UNK         0.2983 
    111 H111       25.1760    0.1263   -7.9845 H         1 UNK         0.0947 
    112 H112       25.6089   -2.3496   -8.1734 H         1 UNK         0.0806 
    113 H113       25.5742   -1.7813   -6.5166 H         1 UNK         0.0806 
    114 H114       27.1214   -2.1395   -7.2957 H         1 UNK         0.0806 
    115 H115       28.5835    0.3894   -8.6861 H         1 UNK         0.3000 
    116 H116       28.0596    0.7771  -11.5035 H         1 UNK         0.0850 
    117 H117       29.9879   -1.4442  -10.5666 H         1 UNK         0.0810 
    118 H118       28.4856   -1.7151  -11.4461 H         1 UNK         0.0810 
    119 H119       29.8173   -0.8800  -12.2252 H         1 UNK         0.0810 
    120 H120       29.9297    1.8335  -12.4920 H         1 UNK         0.3040 
    121 H121       31.2690    3.7001  -10.8391 H         1 UNK         0.0766 
    122 H122       30.7938    4.1110  -13.2404 H         1 UNK         0.0812 
    123 H123       31.8972    2.8171  -13.7113 H         1 UNK         0.0812 
    124 H124       32.5145    4.2679  -12.9339 H         1 UNK         0.0812 
    125 H125       32.2283    0.5008  -11.9113 H         1 UNK         0.3205 
    126 H126       34.9890    0.5420  -11.2415 H         1 UNK         0.0754 
    127 H127       34.7377   -1.9488  -11.2964 H         1 UNK         0.0769 
    128 H128       33.9518   -1.2054  -12.6780 H         1 UNK         0.0769 
    129 H129       32.9874   -1.7857  -11.3182 H         1 UNK         0.0769 
    130 H130       32.1665    0.4645   -9.1441 H         1 UNK         0.2981 
    131 H131       33.6012   -0.6403   -6.8577 H         1 UNK         0.0541 
    132 H132       34.2336    3.3267   -6.8618 H         1 UNK         0.3459 
    133 H133       33.7059    2.4991   -8.3070 H         1 UNK         0.3459 
    134 H134       30.8502    0.6728   -6.9573 H         1 UNK         0.0612 
    135 H135       31.5254   -0.1489   -5.5906 H         1 UNK         0.0612 
    136 H136       31.5466   -3.9286   -6.7704 H         1 UNK         0.0624 
    137 H137       32.8194   -2.7851   -6.4551 H         1 UNK         0.0624 
@<TRIPOS>BOND
     1    1    2 1    
     2    1   72 1    
     3    1   73 1    
     4    1   74 1    
     5    2    3 2    
     6    2    4 am   BACKBONE|DICT|INTERRES
     7    4    5 1    
     8    4   75 1    
     9    5    6 1    
    10    5   35 1    
    11    5   76 1    
    12    6    7 1    
    13    6   77 1    
    14    6   78 1    
    15    7    8 1    
    16    8    9 1    
    17    8   79 1    
    18    8   80 1    
    19    9   10 ar   
    20    9   14 ar   
    21   10   11 ar   
    22   10   81 1    
    23   11   12 ar   
    24   11   71 1    
    25   12   13 ar   
    26   12   82 1    
    27   13   14 ar   
    28   13   15 1    
    29   14   83 1    
    30   15   16 1    
    31   15   84 1    
    32   15   85 1    
    33   16   17 1    
    34   17   18 1    
    35   17   86 1    
    36   17   87 1    
    37   18   19 1    
    38   18   37 1    
    39   18   88 1    
    40   19   20 am   BACKBONE|DICT|INTERRES
    41   19   89 1    
    42   20   21 2    
    43   20   22 1    
    44   22   23 1    
    45   22   24 1    
    46   22   90 1    
    47   23   91 1    
    48   23   92 1    
    49   23   93 1    
    50   24   25 am   BACKBONE|DICT|INTERRES
    51   24   94 1    
    52   25   26 2    
    53   25   27 1    
    54   27   28 1    
    55   27   29 1    
    56   27   95 1    
    57   28   96 1    
    58   28   97 1    
    59   28   98 1    
    60   29   30 am   BACKBONE|DICT|INTERRES
    61   29   99 1    
    62   30   31 2    
    63   30   32 1    
    64   32   33 1    
    65   32   34 1    
    66   32  100 1    
    67   33  101 1    
    68   33  102 1    
    69   33  103 1    
    70   34   35 am   BACKBONE|DICT|INTERRES
    71   34  104 1    
    72   35   36 2    
    73   37   38 2    
    74   37   39 am   BACKBONE|DICT|INTERRES
    75   39   40 1    
    76   39  105 1    
    77   40   41 1    
    78   40   42 1    
    79   40  106 1    
    80   41  107 1    
    81   41  108 1    
    82   41  109 1    
    83   42   43 2    
    84   42   44 am   BACKBONE|DICT|INTERRES
    85   44   45 1    
    86   44  110 1    
    87   45   46 1    
    88   45   47 1    
    89   45  111 1    
    90   46  112 1    
    91   46  113 1    
    92   46  114 1    
    93   47   48 2    
    94   47   49 am   BACKBONE|DICT|INTERRES
    95   49   50 1    
    96   49  115 1    
    97   50   51 1    
    98   50   52 1    
    99   50  116 1    
   100   51  117 1    
   101   51  118 1    
   102   51  119 1    
   103   52   53 2    
   104   52   54 am   BACKBONE|DICT|INTERRES
   105   54   55 1    
   106   54  120 1    
   107   55   56 1    
   108   55   57 1    
   109   55  121 1    
   110   56  122 1    
   111   56  123 1    
   112   56  124 1    
   113   57   58 2    
   114   57   59 am   BACKBONE|DICT|INTERRES
   115   59   60 1    
   116   59  125 1    
   117   60   61 1    
   118   60   62 1    
   119   60  126 1    
   120   61  127 1    
   121   61  128 1    
   122   61  129 1    
   123   62   63 2    
   124   62   64 am   BACKBONE|DICT|INTERRES
   125   64   65 1    
   126   64  130 1    
   127   65   66 1    
   128   65   69 1    
   129   65  131 1    
   130   66   67 am   BACKBONE|DICT|INTERRES
   131   66   68 2    
   132   67  132 1    
   133   67  133 1    
   134   69   70 1    
   135   69  134 1    
   136   69  135 1    
   137   70   71 1    
   138   71  136 1    
   139   71  137 1    
@<TRIPOS>SUBSTRUCTURE
     1 UNK         1 GROUP             0       ****    0 ROOT    
