@<TRIPOS>MOLECULE
3R137
137   139    1
SMALL
USER_CHARGES


@<TRIPOS>ATOM
      1 CA         25.7017   -4.8450    0.4049 C.3       0 UNK        -0.2020 
      2 C          25.7952   -4.0442   -0.8843 C.2       0 UNK         0.4855 
      3 O          25.1414   -3.0087   -1.0095 O.2       0 UNK        -0.5197 
      4 N          26.5902   -4.5250   -1.8515 N.am      1 UNK        -0.4892 
      5 CA         26.8865   -3.8706   -3.1369 C.3       1 UNK         0.0835 
      6 C6         27.9283   -4.6575   -3.9771 C.3       12 UNK        -0.0855 
      7 S7         29.3528   -5.2765   -3.0080 S.3       12 UNK        -0.2931 
      8 C8         30.7653   -4.3491   -3.7055 C.3       12 UNK         0.0378 
      9 C9         30.9408   -2.9077   -3.2202 C.ar      12 UNK        -0.0802 
     10 C10        31.9833   -2.1538   -3.7706 C.ar      12 UNK        -0.0944 
     11 C11        32.2052   -0.8296   -3.3768 C.ar      12 UNK        -0.0787 
     12 C12        31.3689   -0.2583   -2.4144 C.ar      12 UNK        -0.0862 
     13 C13        30.3226   -0.9944   -1.8501 C.ar      12 UNK        -0.0733 
     14 C14        30.1250   -2.3203   -2.2430 C.ar      12 UNK        -0.0832 
     15 C15        29.4018   -0.3543   -0.8173 C.3       12 UNK         0.0240 
     16 S16        27.7470    0.0217   -1.4924 S.3       12 UNK        -0.2522 
     17 C17        28.1589    1.0022   -2.9748 C.3       12 UNK        -0.0967 
     18 CA         27.8892    0.1670   -4.2607 C.3       5 UNK         0.0660 
     19 N          26.4644    0.0867   -4.5896 N.am      5 UNK        -0.4015 
     20 C          25.6892    1.0901   -5.0297 C.2       4 UNK         0.4946 
     21 O          26.0916    2.2392   -5.2197 O.2       4 UNK        -0.5353 
     22 CA         24.2150    0.7635   -5.3003 C.3       4 UNK         0.0277 
     23 CB         24.0439    0.2004   -6.7190 C.3       4 UNK        -0.1981 
     24 N          23.7038   -0.2143   -4.3411 N.am      4 UNK        -0.4209 
     25 C          22.9052    0.0547   -3.2998 C.2       3 UNK         0.4942 
     26 O          22.4991    1.1866   -3.0315 O.2       3 UNK        -0.5208 
     27 CA         22.4990   -1.1240   -2.3858 C.3       3 UNK         0.0250 
     28 CB         20.9979   -1.0964   -2.0276 C.3       3 UNK        -0.1990 
     29 N          22.9061   -2.4450   -2.8870 N.am      3 UNK        -0.4232 
     30 C          22.4899   -3.0719   -4.0016 C.2       2 UNK         0.4993 
     31 O          21.5741   -2.6591   -4.7139 O.2       2 UNK        -0.5286 
     32 CA         23.2571   -4.3457   -4.4229 C.3       2 UNK         0.0209 
     33 CB         23.3226   -4.5025   -5.9580 C.3       2 UNK        -0.1931 
     34 N          24.6061   -4.4502   -3.8447 N.am      2 UNK        -0.4546 
     35 C          25.6246   -3.5839   -3.9783 C.2       1 UNK         0.5154 
     36 O          25.5715   -2.5620   -4.6651 O.2       1 UNK        -0.5181 
     37 C          28.6919    0.5800   -5.5091 C.2       5 UNK         0.5014 
     38 O          28.5673   -0.0908   -6.5373 O.2       5 UNK        -0.5248 
     39 N          29.4754    1.6646   -5.4287 N.am      6 UNK        -0.4434 
     40 CA         30.3542    2.1546   -6.4936 C.3       6 UNK         0.0363 
     41 CB         31.1386    3.3742   -5.9871 C.3       6 UNK        -0.1936 
     42 C          29.6447    2.4798   -7.8181 C.2       6 UNK         0.5081 
     43 O          30.2782    2.3723   -8.8669 O.2       6 UNK        -0.5248 
     44 N          28.3489    2.8192   -7.7613 N.am      7 UNK        -0.4718 
     45 CA         27.5041    3.0550   -8.9350 C.3       7 UNK         0.0273 
     46 CB         26.1763    3.6858   -8.4861 C.3       7 UNK        -0.1935 
     47 C          27.2457    1.7911   -9.7782 C.2       7 UNK         0.5018 
     48 O          26.9853    1.9225  -10.9747 O.2       7 UNK        -0.5186 
     49 N          27.3248    0.6058   -9.1564 N.am      8 UNK        -0.4240 
     50 CA         27.1965   -0.6910   -9.8245 C.3       8 UNK         0.0235 
     51 CB         26.2241   -1.5851   -9.0377 C.3       8 UNK        -0.2000 
     52 C          28.5590   -1.3817   -9.9641 C.2       8 UNK         0.4941 
     53 O          28.8514   -1.9301  -11.0269 O.2       8 UNK        -0.5273 
     54 N          29.3620   -1.3566   -8.8919 N.am      9 UNK        -0.4262 
     55 CA         30.6481   -2.0487   -8.7991 C.3       9 UNK         0.0264 
     56 CB         30.9898   -2.2548   -7.3150 C.3       9 UNK        -0.1955 
     57 C          31.8013   -1.3555   -9.5489 C.2       9 UNK         0.5031 
     58 O          32.8132   -2.0132   -9.7962 O.2       9 UNK        -0.5390 
     59 N          31.6394   -0.0686   -9.9015 N.am      10 UNK        -0.4204 
     60 CA         32.5987    0.7812  -10.6226 C.3       10 UNK         0.0237 
     61 CB         32.7937    0.2850  -12.0719 C.3       10 UNK        -0.1985 
     62 C          33.9237    0.9554   -9.8549 C.2       10 UNK         0.4970 
     63 O          35.0019    0.7694  -10.4227 O.2       10 UNK        -0.4914 
     64 N          33.8079    1.2927   -8.5644 N.am      11 UNK        -0.4285 
     65 CA         34.9318    1.4245   -7.6202 C.3       11 UNK         0.1007 
     66 C          35.8557    2.6543   -7.8612 C.2       11 UNK         0.5703 
     67 N          35.4674    3.6324   -8.6713 N.am      11 UNK        -0.7361 
     68 O          36.9489    2.7184   -7.3038 O.2       11 UNK        -0.4986 
     69 C69        34.4564    1.3809   -6.1428 C.3       12 UNK        -0.0947 
     70 S70        33.3980   -0.0559   -5.7770 S.3       12 UNK        -0.2240 
     71 C71        33.3592   -0.0172   -3.9585 C.3       12 UNK         0.0194 
     72 H72        26.3238   -5.7393    0.3765 H         1 UNK         0.0906 
     73 H73        26.0240   -4.2343    1.2478 H         1 UNK         0.0906 
     74 H74        24.6714   -5.1527    0.5814 H         1 UNK         0.0906 
     75 H75        27.1115   -5.3756   -1.6850 H         1 UNK         0.3140 
     76 H76        27.3112   -2.8953   -2.8947 H         1 UNK         0.1085 
     77 H77        27.4623   -5.5287   -4.4425 H         1 UNK         0.0836 
     78 H78        28.2883   -4.0368   -4.8004 H         1 UNK         0.0836 
     79 H79        31.6736   -4.8992   -3.4554 H         1 UNK         0.0731 
     80 H80        30.6950   -4.3611   -4.7940 H         1 UNK         0.0731 
     81 H81        32.6310   -2.6014   -4.5123 H         1 UNK         0.1312 
     82 H82        31.5335    0.7638   -2.1012 H         1 UNK         0.1406 
     83 H83        29.3278   -2.8804   -1.7779 H         1 UNK         0.1631 
     84 H84        29.8414    0.5647   -0.4262 H         1 UNK         0.0717 
     85 H85        29.2909   -1.0249    0.0359 H         1 UNK         0.0717 
     86 H86        27.5702    1.9209   -2.9649 H         1 UNK         0.0934 
     87 H87        29.1966    1.3207   -2.8899 H         1 UNK         0.0934 
     88 H88        28.2130   -0.8578   -4.0733 H         1 UNK         0.0739 
     89 H89        26.0700   -0.8506   -4.5569 H         1 UNK         0.3093 
     90 H90        23.6503    1.6958   -5.2319 H         1 UNK         0.0818 
     91 H91        22.9898    0.0810   -6.9698 H         1 UNK         0.0819 
     92 H92        24.4837    0.8616   -7.4666 H         1 UNK         0.0819 
     93 H93        24.5196   -0.7754   -6.8176 H         1 UNK         0.0819 
     94 H94        24.0150   -1.1703   -4.4666 H         1 UNK         0.3041 
     95 H95        23.0580   -0.9814   -1.4596 H         1 UNK         0.0784 
     96 H96        20.7385   -0.1761   -1.5028 H         1 UNK         0.0793 
     97 H97        20.3661   -1.1496   -2.9145 H         1 UNK         0.0793 
     98 H98        20.7306   -1.9262   -1.3734 H         1 UNK         0.0793 
     99 H99        23.6768   -2.8595   -2.3689 H         1 UNK         0.3024 
    100 H100       22.6823   -5.1843   -4.0263 H         1 UNK         0.1171 
    101 H101       23.8609   -5.4067   -6.2421 H         1 UNK         0.0786 
    102 H102       23.8185   -3.6544   -6.4317 H         1 UNK         0.0786 
    103 H103       22.3234   -4.5756   -6.3891 H         1 UNK         0.0786 
    104 H104       24.7557   -5.2366   -3.2267 H         1 UNK         0.2977 
    105 H105       29.4839    2.1890   -4.5668 H         1 UNK         0.3127 
    106 H106       31.0632    1.3554   -6.7097 H         1 UNK         0.0770 
    107 H107       30.4763    4.2043   -5.7386 H         1 UNK         0.0814 
    108 H108       31.8380    3.7315   -6.7444 H         1 UNK         0.0814 
    109 H109       31.7213    3.1312   -5.0985 H         1 UNK         0.0814 
    110 H110       27.8960    2.8561   -6.8567 H         1 UNK         0.2983 
    111 H111       28.0207    3.7703   -9.5790 H         1 UNK         0.0947 
    112 H112       25.5370    3.9026   -9.3431 H         1 UNK         0.0806 
    113 H113       26.3413    4.6264   -7.9604 H         1 UNK         0.0806 
    114 H114       25.6185    3.0251   -7.8224 H         1 UNK         0.0806 
    115 H115       27.5856    0.5890   -8.1761 H         1 UNK         0.3000 
    116 H116       26.7906   -0.5649  -10.8306 H         1 UNK         0.0850 
    117 H117       26.1743   -2.5857   -9.4695 H         1 UNK         0.0810 
    118 H118       25.2144   -1.1770   -9.0635 H         1 UNK         0.0810 
    119 H119       26.5224   -1.6941   -7.9938 H         1 UNK         0.0810 
    120 H120       29.0371   -0.8998   -8.0400 H         1 UNK         0.3040 
    121 H121       30.5334   -3.0367   -9.2504 H         1 UNK         0.0766 
    122 H122       31.9634   -2.7313   -7.1927 H         1 UNK         0.0812 
    123 H123       30.2523   -2.8907   -6.8257 H         1 UNK         0.0812 
    124 H124       31.0159   -1.3090   -6.7756 H         1 UNK         0.0812 
    125 H125       30.7880    0.4015   -9.6167 H         1 UNK         0.3205 
    126 H126       32.1499    1.7736  -10.6806 H         1 UNK         0.0754 
    127 H127       33.4131    0.9787  -12.6418 H         1 UNK         0.0769 
    128 H128       31.8397    0.2003  -12.5924 H         1 UNK         0.0769 
    129 H129       33.2818   -0.6895  -12.1070 H         1 UNK         0.0769 
    130 H130       32.8858    1.4240   -8.1792 H         1 UNK         0.2981 
    131 H131       35.5667    0.5498   -7.7741 H         1 UNK         0.0541 
    132 H132       34.5757    3.5878   -9.1368 H         1 UNK         0.3459 
    133 H133       36.0775    4.4204   -8.8211 H         1 UNK         0.3459 
    134 H134       33.9033    2.2870   -5.8922 H         1 UNK         0.0612 
    135 H135       35.3157    1.3480   -5.4702 H         1 UNK         0.0612 
    136 H136       34.3027   -0.4047   -3.5726 H         1 UNK         0.0624 
    137 H137       33.2910    1.0226   -3.6346 H         1 UNK         0.0624 
@<TRIPOS>BOND
     1    1    2 1    
     2    1   72 1    
     3    1   73 1    
     4    1   74 1    
     5    2    3 2    
     6    2    4 am   BACKBONE|DICT|INTERRES
     7    4    5 1    
     8    4   75 1    
     9    5    6 1    
    10    5   35 1    
    11    5   76 1    
    12    6    7 1    
    13    6   77 1    
    14    6   78 1    
    15    7    8 1    
    16    8    9 1    
    17    8   79 1    
    18    8   80 1    
    19    9   10 ar   
    20    9   14 ar   
    21   10   11 ar   
    22   10   81 1    
    23   11   12 ar   
    24   11   71 1    
    25   12   13 ar   
    26   12   82 1    
    27   13   14 ar   
    28   13   15 1    
    29   14   83 1    
    30   15   16 1    
    31   15   84 1    
    32   15   85 1    
    33   16   17 1    
    34   17   18 1    
    35   17   86 1    
    36   17   87 1    
    37   18   19 1    
    38   18   37 1    
    39   18   88 1    
    40   19   20 am   BACKBONE|DICT|INTERRES
    41   19   89 1    
    42   20   21 2    
    43   20   22 1    
    44   22   23 1    
    45   22   24 1    
    46   22   90 1    
    47   23   91 1    
    48   23   92 1    
    49   23   93 1    
    50   24   25 am   BACKBONE|DICT|INTERRES
    51   24   94 1    
    52   25   26 2    
    53   25   27 1    
    54   27   28 1    
    55   27   29 1    
    56   27   95 1    
    57   28   96 1    
    58   28   97 1    
    59   28   98 1    
    60   29   30 am   BACKBONE|DICT|INTERRES
    61   29   99 1    
    62   30   31 2    
    63   30   32 1    
    64   32   33 1    
    65   32   34 1    
    66   32  100 1    
    67   33  101 1    
    68   33  102 1    
    69   33  103 1    
    70   34   35 am   BACKBONE|DICT|INTERRES
    71   34  104 1    
    72   35   36 2    
    73   37   38 2    
    74   37   39 am   BACKBONE|DICT|INTERRES
    75   39   40 1    
    76   39  105 1    
    77   40   41 1    
    78   40   42 1    
    79   40  106 1    
    80   41  107 1    
    81   41  108 1    
    82   41  109 1    
    83   42   43 2    
    84   42   44 am   BACKBONE|DICT|INTERRES
    85   44   45 1    
    86   44  110 1    
    87   45   46 1    
    88   45   47 1    
    89   45  111 1    
    90   46  112 1    
    91   46  113 1    
    92   46  114 1    
    93   47   48 2    
    94   47   49 am   BACKBONE|DICT|INTERRES
    95   49   50 1    
    96   49  115 1    
    97   50   51 1    
    98   50   52 1    
    99   50  116 1    
   100   51  117 1    
   101   51  118 1    
   102   51  119 1    
   103   52   53 2    
   104   52   54 am   BACKBONE|DICT|INTERRES
   105   54   55 1    
   106   54  120 1    
   107   55   56 1    
   108   55   57 1    
   109   55  121 1    
   110   56  122 1    
   111   56  123 1    
   112   56  124 1    
   113   57   58 2    
   114   57   59 am   BACKBONE|DICT|INTERRES
   115   59   60 1    
   116   59  125 1    
   117   60   61 1    
   118   60   62 1    
   119   60  126 1    
   120   61  127 1    
   121   61  128 1    
   122   61  129 1    
   123   62   63 2    
   124   62   64 am   BACKBONE|DICT|INTERRES
   125   64   65 1    
   126   64  130 1    
   127   65   66 1    
   128   65   69 1    
   129   65  131 1    
   130   66   67 am   BACKBONE|DICT|INTERRES
   131   66   68 2    
   132   67  132 1    
   133   67  133 1    
   134   69   70 1    
   135   69  134 1    
   136   69  135 1    
   137   70   71 1    
   138   71  136 1    
   139   71  137 1    
@<TRIPOS>SUBSTRUCTURE
     1 UNK         1 GROUP             0       ****    0 ROOT    
