@<TRIPOS>MOLECULE
3R137
137   139    1
SMALL
USER_CHARGES


@<TRIPOS>ATOM
      1 CA         24.2912   -3.0000    0.7552 C.3       0 UNK        -0.2020 
      2 C          25.5695   -2.2847    0.3437 C.2       0 UNK         0.4855 
      3 O          25.9108   -1.2567    0.9287 O.2       0 UNK        -0.5197 
      4 N          26.2829   -2.8244   -0.6525 N.am      1 UNK        -0.4892 
      5 CA         27.4917   -2.2274   -1.2238 C.3       1 UNK         0.0835 
      6 C6         28.3679   -3.2983   -1.9218 C.3       12 UNK        -0.0855 
      7 S7         30.1351   -2.8514   -1.9305 S.3       12 UNK        -0.2931 
      8 C8         30.8743   -4.3473   -2.6636 C.3       12 UNK         0.0378 
      9 C9         30.7979   -4.3287   -4.1838 C.ar      12 UNK        -0.0802 
     10 C10        31.8630   -3.8165   -4.9318 C.ar      12 UNK        -0.0944 
     11 C11        31.8053   -3.7798   -6.3308 C.ar      12 UNK        -0.0787 
     12 C12        30.6684   -4.2811   -6.9737 C.ar      12 UNK        -0.0862 
     13 C13        29.5952   -4.7967   -6.2391 C.ar      12 UNK        -0.0733 
     14 C14        29.6705   -4.8266   -4.8441 C.ar      12 UNK        -0.0832 
     15 C15        28.3682   -5.3458   -6.9548 C.3       12 UNK         0.0240 
     16 S16        27.2946   -4.0241   -7.6005 S.3       12 UNK        -0.2522 
     17 C17        26.4961   -3.3867   -6.0876 C.3       12 UNK        -0.0967 
     18 CA         25.2427   -2.5283   -6.3938 C.3       5 UNK         0.0660 
     19 N          24.5482   -2.1454   -5.1706 N.am      5 UNK        -0.4015 
     20 C          23.2192   -2.1404   -5.0129 C.2       4 UNK         0.4946 
     21 O          22.4275   -2.6809   -5.7868 O.2       4 UNK        -0.5353 
     22 CA         22.6788   -1.3371   -3.8181 C.3       4 UNK         0.0277 
     23 CB         22.8953   -2.0876   -2.4952 C.3       4 UNK        -0.1981 
     24 N          23.2956   -0.0093   -3.7494 N.am      4 UNK        -0.4209 
     25 C          23.0991    0.9712   -4.6429 C.2       3 UNK         0.4942 
     26 O          22.2677    0.9052   -5.5491 O.2       3 UNK        -0.5208 
     27 CA         23.9839    2.2294   -4.5490 C.3       3 UNK         0.0250 
     28 CB         23.2990    3.3401   -3.7278 C.3       3 UNK        -0.1990 
     29 N          25.3607    1.9752   -4.0977 N.am      3 UNK        -0.4232 
     30 C          25.7866    1.6084   -2.8817 C.2       2 UNK         0.4993 
     31 O          25.0494    1.4626   -1.9043 O.2       2 UNK        -0.5286 
     32 CA         27.2924    1.3236   -2.7468 C.3       2 UNK         0.0209 
     33 CB         28.0179    2.5289   -2.1284 C.3       2 UNK        -0.1931 
     34 N          27.5743    0.1251   -1.9474 N.am      2 UNK        -0.4546 
     35 C          27.0903   -1.1009   -2.1953 C.2       1 UNK         0.5154 
     36 O          26.3578   -1.3710   -3.1515 O.2       1 UNK        -0.5181 
     37 C          25.6003   -1.2184   -7.1199 C.2       5 UNK         0.5014 
     38 O          26.1339   -0.2983   -6.4940 O.2       5 UNK        -0.5248 
     39 N          25.3281   -1.1601   -8.4299 N.am      6 UNK        -0.4434 
     40 CA         25.6972   -0.0299   -9.2870 C.3       6 UNK         0.0363 
     41 CB         24.9343   -0.1172  -10.6183 C.3       6 UNK        -0.1936 
     42 C          27.2130    0.0392   -9.5343 C.2       6 UNK         0.5081 
     43 O          27.7783    1.1319   -9.5534 O.2       6 UNK        -0.5248 
     44 N          27.8528   -1.1298   -9.6840 N.am      7 UNK        -0.4718 
     45 CA         29.2974   -1.2596   -9.8903 C.3       7 UNK         0.0273 
     46 CB         29.6273   -2.6737  -10.3911 C.3       7 UNK        -0.1935 
     47 C          30.1295   -0.8983   -8.6489 C.2       7 UNK         0.5018 
     48 O          31.2893   -0.5194   -8.8055 O.2       7 UNK        -0.5186 
     49 N          29.5287   -0.9547   -7.4507 N.am      8 UNK        -0.4240 
     50 CA         30.1569   -0.5201   -6.1988 C.3       8 UNK         0.0235 
     51 CB         29.2888   -0.9137   -5.0013 C.3       8 UNK        -0.2000 
     52 C          30.4964    0.9783   -6.1732 C.2       8 UNK         0.4941 
     53 O          31.5118    1.3609   -5.5916 O.2       8 UNK        -0.5273 
     54 N          29.6767    1.7944   -6.8511 N.am      9 UNK        -0.4262 
     55 CA         29.9366    3.2189   -7.0637 C.3       9 UNK         0.0264 
     56 CB         28.6388    3.9108   -7.5112 C.3       9 UNK        -0.1955 
     57 C          31.0723    3.4807   -8.0726 C.2       9 UNK         0.5031 
     58 O          31.6509    4.5678   -8.0425 O.2       9 UNK        -0.5390 
     59 N          31.3723    2.5029   -8.9409 N.am      10 UNK        -0.4204 
     60 CA         32.4626    2.5664   -9.9124 C.3       10 UNK         0.0237 
     61 CB         32.0970    1.7668  -11.1752 C.3       10 UNK        -0.1985 
     62 C          33.7837    2.0750   -9.3031 C.2       10 UNK         0.4970 
     63 O          34.7949    2.7618   -9.4566 O.2       10 UNK        -0.4914 
     64 N          33.7668    0.9112   -8.6331 N.am      11 UNK        -0.4285 
     65 CA         34.9579    0.3402   -7.9803 C.3       11 UNK         0.1007 
     66 C          35.4179    1.0946   -6.6981 C.2       11 UNK         0.5703 
     67 N          34.5354    1.7805   -5.9801 N.am      11 UNK        -0.7361 
     68 O          36.5999    1.0702   -6.3625 O.2       11 UNK        -0.4986 
     69 C69        34.8598   -1.1978   -7.7759 C.3       12 UNK        -0.0947 
     70 S70        33.7114   -1.7185   -6.4574 S.3       12 UNK        -0.2240 
     71 C71        32.9611   -3.2238   -7.1651 C.3       12 UNK         0.0194 
     72 H72        23.4442   -2.3169    0.6978 H         1 UNK         0.0906 
     73 H73        24.0782   -3.8571    0.1165 H         1 UNK         0.0906 
     74 H74        24.3737   -3.3538    1.7825 H         1 UNK         0.0906 
     75 H75        25.9420   -3.6534   -1.1179 H         1 UNK         0.3140 
     76 H76        28.0670   -1.7974   -0.4002 H         1 UNK         0.1085 
     77 H77        28.2863   -4.2483   -1.3907 H         1 UNK         0.0836 
     78 H78        28.0262   -3.4935   -2.9395 H         1 UNK         0.0836 
     79 H79        30.3878   -5.2399   -2.2673 H         1 UNK         0.0731 
     80 H80        31.9170   -4.4094   -2.3481 H         1 UNK         0.0731 
     81 H81        32.7368   -3.4382   -4.4197 H         1 UNK         0.1312 
     82 H82        30.6173   -4.2718   -8.0524 H         1 UNK         0.1406 
     83 H83        28.8500   -5.2367   -4.2720 H         1 UNK         0.1631 
     84 H84        27.7904   -5.9985   -6.2987 H         1 UNK         0.0717 
     85 H85        28.6924   -5.9684   -7.7898 H         1 UNK         0.0717 
     86 H86        26.2078   -4.2388   -5.4701 H         1 UNK         0.0934 
     87 H87        27.2225   -2.8254   -5.5009 H         1 UNK         0.0934 
     88 H88        24.5755   -3.1161   -7.0280 H         1 UNK         0.0739 
     89 H89        25.1304   -1.6777   -4.4763 H         1 UNK         0.3093 
     90 H90        21.6043   -1.2036   -3.9610 H         1 UNK         0.0818 
     91 H91        22.4719   -1.5380   -1.6544 H         1 UNK         0.0819 
     92 H92        22.4143   -3.0663   -2.5192 H         1 UNK         0.0819 
     93 H93        23.9530   -2.2491   -2.2920 H         1 UNK         0.0819 
     94 H94        23.9780    0.1554   -3.0163 H         1 UNK         0.3041 
     95 H95        24.0866    2.6015   -5.5698 H         1 UNK         0.0784 
     96 H96        22.3360    3.6060   -4.1659 H         1 UNK         0.0793 
     97 H97        23.1087    3.0332   -2.6991 H         1 UNK         0.0793 
     98 H98        23.9046    4.2460   -3.7023 H         1 UNK         0.0793 
     99 H99        26.0445    1.9948   -4.8425 H         1 UNK         0.3024 
    100 H100       27.7005    1.1583   -3.7440 H         1 UNK         0.1171 
    101 H101       29.0960    2.3699   -2.0947 H         1 UNK         0.0786 
    102 H102       27.8441    3.4329   -2.7139 H         1 UNK         0.0786 
    103 H103       27.6736    2.7275   -1.1124 H         1 UNK         0.0786 
    104 H104       28.1397    0.2619   -1.1225 H         1 UNK         0.2977 
    105 H105       24.8834   -1.9497   -8.8767 H         1 UNK         0.3127 
    106 H106       25.4005    0.8939   -8.7848 H         1 UNK         0.0770 
    107 H107       25.1757   -1.0282  -11.1672 H         1 UNK         0.0814 
    108 H108       25.1819    0.7268  -11.2637 H         1 UNK         0.0814 
    109 H109       23.8560   -0.0955  -10.4596 H         1 UNK         0.0814 
    110 H110       27.3191   -1.9861   -9.6336 H         1 UNK         0.2983 
    111 H111       29.5874   -0.5550  -10.6733 H         1 UNK         0.0947 
    112 H112       30.7043   -2.8105  -10.5005 H         1 UNK         0.0806 
    113 H113       29.1790   -2.8590  -11.3673 H         1 UNK         0.0806 
    114 H114       29.2660   -3.4424   -9.7103 H         1 UNK         0.0806 
    115 H115       28.5713   -1.2717   -7.4033 H         1 UNK         0.3000 
    116 H116       31.0960   -1.0561   -6.0985 H         1 UNK         0.0850 
    117 H117       29.6910   -0.5070   -4.0725 H         1 UNK         0.0810 
    118 H118       29.2603   -1.9947   -4.8834 H         1 UNK         0.0810 
    119 H119       28.2661   -0.5601   -5.1071 H         1 UNK         0.0810 
    120 H120       28.8756    1.3997   -7.3266 H         1 UNK         0.3040 
    121 H121       30.2405    3.6557   -6.1098 H         1 UNK         0.0766 
    122 H122       28.2899    3.5337   -8.4730 H         1 UNK         0.0812 
    123 H123       28.7894    4.9857   -7.6201 H         1 UNK         0.0812 
    124 H124       27.8397    3.7687   -6.7836 H         1 UNK         0.0812 
    125 H125       30.8881    1.6180   -8.8651 H         1 UNK         0.3205 
    126 H126       32.6039    3.6056  -10.2182 H         1 UNK         0.0754 
    127 H127       32.8697    1.8761  -11.9373 H         1 UNK         0.0769 
    128 H128       31.1618    2.1198  -11.6102 H         1 UNK         0.0769 
    129 H129       31.9917    0.7008  -10.9761 H         1 UNK         0.0769 
    130 H130       32.9041    0.3762   -8.5649 H         1 UNK         0.2981 
    131 H131       35.7761    0.4760   -8.6906 H         1 UNK         0.0541 
    132 H132       34.8479    2.2695   -5.1573 H         1 UNK         0.3459 
    133 H133       33.5455    1.7253   -6.1843 H         1 UNK         0.3459 
    134 H134       35.8439   -1.6025   -7.5341 H         1 UNK         0.0612 
    135 H135       34.5696   -1.6708   -8.7151 H         1 UNK         0.0612 
    136 H136       33.7289   -3.9916   -7.2647 H         1 UNK         0.0624 
    137 H137       32.6136   -2.9910   -8.1729 H         1 UNK         0.0624 
@<TRIPOS>BOND
     1    1    2 1    
     2    1   72 1    
     3    1   73 1    
     4    1   74 1    
     5    2    3 2    
     6    2    4 am   BACKBONE|DICT|INTERRES
     7    4    5 1    
     8    4   75 1    
     9    5    6 1    
    10    5   35 1    
    11    5   76 1    
    12    6    7 1    
    13    6   77 1    
    14    6   78 1    
    15    7    8 1    
    16    8    9 1    
    17    8   79 1    
    18    8   80 1    
    19    9   10 ar   
    20    9   14 ar   
    21   10   11 ar   
    22   10   81 1    
    23   11   12 ar   
    24   11   71 1    
    25   12   13 ar   
    26   12   82 1    
    27   13   14 ar   
    28   13   15 1    
    29   14   83 1    
    30   15   16 1    
    31   15   84 1    
    32   15   85 1    
    33   16   17 1    
    34   17   18 1    
    35   17   86 1    
    36   17   87 1    
    37   18   19 1    
    38   18   37 1    
    39   18   88 1    
    40   19   20 am   BACKBONE|DICT|INTERRES
    41   19   89 1    
    42   20   21 2    
    43   20   22 1    
    44   22   23 1    
    45   22   24 1    
    46   22   90 1    
    47   23   91 1    
    48   23   92 1    
    49   23   93 1    
    50   24   25 am   BACKBONE|DICT|INTERRES
    51   24   94 1    
    52   25   26 2    
    53   25   27 1    
    54   27   28 1    
    55   27   29 1    
    56   27   95 1    
    57   28   96 1    
    58   28   97 1    
    59   28   98 1    
    60   29   30 am   BACKBONE|DICT|INTERRES
    61   29   99 1    
    62   30   31 2    
    63   30   32 1    
    64   32   33 1    
    65   32   34 1    
    66   32  100 1    
    67   33  101 1    
    68   33  102 1    
    69   33  103 1    
    70   34   35 am   BACKBONE|DICT|INTERRES
    71   34  104 1    
    72   35   36 2    
    73   37   38 2    
    74   37   39 am   BACKBONE|DICT|INTERRES
    75   39   40 1    
    76   39  105 1    
    77   40   41 1    
    78   40   42 1    
    79   40  106 1    
    80   41  107 1    
    81   41  108 1    
    82   41  109 1    
    83   42   43 2    
    84   42   44 am   BACKBONE|DICT|INTERRES
    85   44   45 1    
    86   44  110 1    
    87   45   46 1    
    88   45   47 1    
    89   45  111 1    
    90   46  112 1    
    91   46  113 1    
    92   46  114 1    
    93   47   48 2    
    94   47   49 am   BACKBONE|DICT|INTERRES
    95   49   50 1    
    96   49  115 1    
    97   50   51 1    
    98   50   52 1    
    99   50  116 1    
   100   51  117 1    
   101   51  118 1    
   102   51  119 1    
   103   52   53 2    
   104   52   54 am   BACKBONE|DICT|INTERRES
   105   54   55 1    
   106   54  120 1    
   107   55   56 1    
   108   55   57 1    
   109   55  121 1    
   110   56  122 1    
   111   56  123 1    
   112   56  124 1    
   113   57   58 2    
   114   57   59 am   BACKBONE|DICT|INTERRES
   115   59   60 1    
   116   59  125 1    
   117   60   61 1    
   118   60   62 1    
   119   60  126 1    
   120   61  127 1    
   121   61  128 1    
   122   61  129 1    
   123   62   63 2    
   124   62   64 am   BACKBONE|DICT|INTERRES
   125   64   65 1    
   126   64  130 1    
   127   65   66 1    
   128   65   69 1    
   129   65  131 1    
   130   66   67 am   BACKBONE|DICT|INTERRES
   131   66   68 2    
   132   67  132 1    
   133   67  133 1    
   134   69   70 1    
   135   69  134 1    
   136   69  135 1    
   137   70   71 1    
   138   71  136 1    
   139   71  137 1    
@<TRIPOS>SUBSTRUCTURE
     1 UNK         1 GROUP             0       ****    0 ROOT    
