@<TRIPOS>MOLECULE
3R137
137   139    1
SMALL
USER_CHARGES


@<TRIPOS>ATOM
      1 CA         28.8772   -5.7931   -6.6238 C.3       0 UNK        -0.2020 
      2 C          28.1036   -5.0544   -5.5426 C.2       0 UNK         0.4855 
      3 O          27.6968   -3.9146   -5.7594 O.2       0 UNK        -0.5197 
      4 N          27.8820   -5.7035   -4.3902 N.am      1 UNK        -0.4892 
      5 CA         27.2070   -5.2124   -3.1730 C.3       1 UNK         0.0835 
      6 C6         27.9204   -4.0011   -2.5122 C.3       12 UNK        -0.0855 
      7 S7         29.5099   -4.4800   -1.7470 S.3       12 UNK        -0.2931 
      8 C8         30.7387   -3.7208   -2.8670 C.3       12 UNK         0.0378 
      9 C9         30.9624   -2.2124   -2.7124 C.ar      12 UNK        -0.0802 
     10 C10        32.0737   -1.6403   -3.3393 C.ar      12 UNK        -0.0944 
     11 C11        32.3144   -0.2636   -3.2736 C.ar      12 UNK        -0.0787 
     12 C12        31.4369    0.5469   -2.5478 C.ar      12 UNK        -0.0862 
     13 C13        30.3170    0.0002   -1.9130 C.ar      12 UNK        -0.0733 
     14 C14        30.0976   -1.3805   -1.9904 C.ar      12 UNK        -0.0832 
     15 C15        29.3840    0.9078   -1.1120 C.3       12 UNK         0.0240 
     16 S16        27.6275    0.4031   -1.1540 S.3       12 UNK        -0.2522 
     17 C17        26.9719    1.2472   -2.6304 C.3       12 UNK        -0.0967 
     18 CA         26.9545    0.3441   -3.9066 C.3       5 UNK         0.0660 
     19 N          25.6735    0.4354   -4.6114 N.am      5 UNK        -0.4015 
     20 C          25.2095    1.4773   -5.3205 C.2       4 UNK         0.4946 
     21 O          25.8830    2.4762   -5.5808 O.2       4 UNK        -0.5353 
     22 CA         23.7480    1.4205   -5.8163 C.3       4 UNK         0.0277 
     23 CB         23.6774    1.3622   -7.3502 C.3       4 UNK        -0.1981 
     24 N          22.9789    0.3055   -5.2528 N.am      4 UNK        -0.4209 
     25 C          22.4608    0.2927   -4.0157 C.2       3 UNK         0.4942 
     26 O          22.5116    1.2525   -3.2458 O.2       3 UNK        -0.5208 
     27 CA         21.7922   -1.0127   -3.5389 C.3       3 UNK         0.0250 
     28 CB         20.2711   -0.9406   -3.7517 C.3       3 UNK        -0.1990 
     29 N          22.3067   -2.2486   -4.1480 N.am      3 UNK        -0.4232 
     30 C          23.5843   -2.6548   -4.1277 C.2       2 UNK         0.4993 
     31 O          24.5051   -1.9756   -3.6687 O.2       2 UNK        -0.5286 
     32 CA         23.8789   -4.0256   -4.7628 C.3       2 UNK         0.0209 
     33 CB         23.6691   -3.9848   -6.2855 C.3       2 UNK        -0.1931 
     34 N          25.2535   -4.4506   -4.4910 N.am      2 UNK        -0.4546 
     35 C          25.6900   -4.9510   -3.3302 C.2       1 UNK         0.5154 
     36 O          24.9378   -5.2275   -2.3935 O.2       1 UNK        -0.5181 
     37 C          28.1365    0.5311   -4.8836 C.2       5 UNK         0.5014 
     38 O          28.3021   -0.2842   -5.7940 O.2       5 UNK        -0.5248 
     39 N          28.9002    1.6196   -4.7239 N.am      6 UNK        -0.4434 
     40 CA         30.0586    1.9892   -5.5360 C.3       6 UNK         0.0363 
     41 CB         30.6594    3.2843   -4.9685 C.3       6 UNK        -0.1936 
     42 C          29.7576    2.1582   -7.0345 C.2       6 UNK         0.5081 
     43 O          30.6472    1.9244   -7.8534 O.2       6 UNK        -0.5248 
     44 N          28.5201    2.5461   -7.3737 N.am      7 UNK        -0.4718 
     45 CA         28.0644    2.6925   -8.7569 C.3       7 UNK         0.0273 
     46 CB         26.8741    3.6619   -8.8030 C.3       7 UNK        -0.1935 
     47 C          27.7125    1.3491   -9.4198 C.2       7 UNK         0.5018 
     48 O          27.7881    1.2585  -10.6453 O.2       7 UNK        -0.5186 
     49 N          27.3563    0.3313   -8.6211 N.am      8 UNK        -0.4240 
     50 CA         27.1407   -1.0386   -9.0963 C.3       8 UNK         0.0235 
     51 CB         26.1682   -1.7859   -8.1693 C.3       8 UNK        -0.2000 
     52 C          28.4687   -1.7972   -9.1976 C.2       8 UNK         0.4941 
     53 O          28.7188   -2.4583  -10.2058 O.2       8 UNK        -0.5273 
     54 N          29.2980   -1.6737   -8.1542 N.am      9 UNK        -0.4262 
     55 CA         30.6045   -2.3218   -8.0460 C.3       9 UNK         0.0264 
     56 CB         30.9964   -2.3562   -6.5644 C.3       9 UNK        -0.1955 
     57 C          31.7076   -1.6856   -8.9176 C.2       9 UNK         0.5031 
     58 O          32.7505   -2.3163   -9.0970 O.2       9 UNK        -0.5390 
     59 N          31.4557   -0.4813   -9.4552 N.am      10 UNK        -0.4204 
     60 CA         32.3233    0.3193  -10.3298 C.3       10 UNK         0.0237 
     61 CB         32.5973   -0.4057  -11.6653 C.3       10 UNK        -0.1985 
     62 C          33.6026    0.7812   -9.6083 C.2       10 UNK         0.4970 
     63 O          34.7154    0.5049  -10.0615 O.2       10 UNK        -0.4914 
     64 N          33.4007    1.4774   -8.4877 N.am      11 UNK        -0.4285 
     65 CA         34.4408    1.9560   -7.5621 C.3       11 UNK         0.1007 
     66 C          34.1341    3.3604   -6.9700 C.2       11 UNK         0.5703 
     67 N          33.1868    4.1144   -7.5170 N.am      11 UNK        -0.7361 
     68 O          34.7834    3.7945   -6.0215 O.2       11 UNK        -0.4986 
     69 C69        34.8355    0.8832   -6.5017 C.3       12 UNK        -0.0947 
     70 S70        33.4052    0.0114   -5.7844 S.3       12 UNK        -0.2240 
     71 C71        33.5107    0.3442   -4.0015 C.3       12 UNK         0.0194 
     72 H72        28.3472   -5.7284   -7.5738 H         1 UNK         0.0906 
     73 H73        29.8615   -5.3448   -6.7531 H         1 UNK         0.0906 
     74 H74        29.0115   -6.8471   -6.3821 H         1 UNK         0.0906 
     75 H75        28.2236   -6.6516   -4.3100 H         1 UNK         0.3140 
     76 H76        27.2660   -6.0432   -2.4674 H         1 UNK         0.1085 
     77 H77        27.3053   -3.5792   -1.7143 H         1 UNK         0.0836 
     78 H78        28.0678   -3.1919   -3.2296 H         1 UNK         0.0836 
     79 H79        31.6888   -4.2302   -2.6994 H         1 UNK         0.0731 
     80 H80        30.4556   -3.9380   -3.8962 H         1 UNK         0.0731 
     81 H81        32.7490   -2.2678   -3.9051 H         1 UNK         0.1312 
     82 H82        31.6269    1.6081   -2.4767 H         1 UNK         0.1406 
     83 H83        29.2443   -1.8011   -1.4816 H         1 UNK         0.1631 
     84 H84        29.4701    1.9435   -1.4437 H         1 UNK         0.0717 
     85 H85        29.7155    0.8925   -0.0731 H         1 UNK         0.0717 
     86 H86        25.9452    1.5001   -2.3585 H         1 UNK         0.0934 
     87 H87        27.4427    2.2204   -2.7653 H         1 UNK         0.0934 
     88 H88        27.0113   -0.6983   -3.5881 H         1 UNK         0.0739 
     89 H89        25.0640   -0.3628   -4.4498 H         1 UNK         0.3093 
     90 H90        23.2728    2.3524   -5.5020 H         1 UNK         0.0818 
     91 H91        22.6496    1.2646   -7.7001 H         1 UNK         0.0819 
     92 H92        24.0744    2.2758   -7.7906 H         1 UNK         0.0819 
     93 H93        24.2517    0.5317   -7.7536 H         1 UNK         0.0819 
     94 H94        22.8830   -0.5226   -5.8223 H         1 UNK         0.3041 
     95 H95        21.9805   -1.0871   -2.4658 H         1 UNK         0.0784 
     96 H96        19.8528   -0.0466   -3.2867 H         1 UNK         0.0793 
     97 H97        20.0127   -0.9078   -4.8109 H         1 UNK         0.0793 
     98 H98        19.7656   -1.7985   -3.3077 H         1 UNK         0.0793 
     99 H99        21.6157   -2.8585   -4.5617 H         1 UNK         0.3024 
    100 H100       23.1935   -4.7572   -4.3287 H         1 UNK         0.1171 
    101 H101       23.9137   -4.9427   -6.7452 H         1 UNK         0.0786 
    102 H102       24.2899   -3.2226   -6.7529 H         1 UNK         0.0786 
    103 H103       22.6322   -3.7632   -6.5404 H         1 UNK         0.0786 
    104 H104       25.9689   -4.1816   -5.1631 H         1 UNK         0.2977 
    105 H105       28.6590    2.2597   -3.9836 H         1 UNK         0.3127 
    106 H106       30.7882    1.1858   -5.4357 H         1 UNK         0.0770 
    107 H107       30.0037    4.1402   -5.1343 H         1 UNK         0.0814 
    108 H108       31.6130    3.5082   -5.4413 H         1 UNK         0.0814 
    109 H109       30.8471    3.2137   -3.8986 H         1 UNK         0.0814 
    110 H110       27.8320    2.6948   -6.6432 H         1 UNK         0.2983 
    111 H111       28.8733    3.1343   -9.3438 H         1 UNK         0.0947 
    112 H112       26.4925    3.7692   -9.8194 H         1 UNK         0.0806 
    113 H113       27.1618    4.6554   -8.4589 H         1 UNK         0.0806 
    114 H114       26.0517    3.3200   -8.1774 H         1 UNK         0.0806 
    115 H115       27.3904    0.4662   -7.6179 H         1 UNK         0.3000 
    116 H116       26.6970   -1.0133  -10.0943 H         1 UNK         0.0850 
    117 H117       26.1441   -2.8504   -8.4081 H         1 UNK         0.0810 
    118 H118       25.1510   -1.4182   -8.2831 H         1 UNK         0.0810 
    119 H119       26.4493   -1.7001   -7.1189 H         1 UNK         0.0810 
    120 H120       28.9779   -1.1583   -7.3359 H         1 UNK         0.3040 
    121 H121       30.4984   -3.3544   -8.3849 H         1 UNK         0.0766 
    122 H122       31.9999   -2.7590   -6.4218 H         1 UNK         0.0812 
    123 H123       30.3079   -2.9782   -5.9964 H         1 UNK         0.0812 
    124 H124       30.9644   -1.3611   -6.1224 H         1 UNK         0.0812 
    125 H125       30.5994   -0.0258   -9.1691 H         1 UNK         0.3205 
    126 H126       31.7611    1.2248  -10.5639 H         1 UNK         0.0754 
    127 H127       33.1460    0.2400  -12.3520 H         1 UNK         0.0769 
    128 H128       31.6678   -0.6893  -12.1591 H         1 UNK         0.0769 
    129 H129       33.1921   -1.3089  -11.5264 H         1 UNK         0.0769 
    130 H130       32.4418    1.6408   -8.1855 H         1 UNK         0.2981 
    131 H131       35.3373    2.1435   -8.1555 H         1 UNK         0.0541 
    132 H132       32.6541    3.7843   -8.3056 H         1 UNK         0.3459 
    133 H133       33.0124    5.0319   -7.1397 H         1 UNK         0.3459 
    134 H134       35.4587    1.3000   -5.7090 H         1 UNK         0.0612 
    135 H135       35.4520    0.1238   -6.9844 H         1 UNK         0.0612 
    136 H136       34.4341   -0.0800   -3.6053 H         1 UNK         0.0624 
    137 H137       33.5589    1.4229   -3.8442 H         1 UNK         0.0624 
@<TRIPOS>BOND
     1    1    2 1    
     2    1   72 1    
     3    1   73 1    
     4    1   74 1    
     5    2    3 2    
     6    2    4 am   BACKBONE|DICT|INTERRES
     7    4    5 1    
     8    4   75 1    
     9    5    6 1    
    10    5   35 1    
    11    5   76 1    
    12    6    7 1    
    13    6   77 1    
    14    6   78 1    
    15    7    8 1    
    16    8    9 1    
    17    8   79 1    
    18    8   80 1    
    19    9   10 ar   
    20    9   14 ar   
    21   10   11 ar   
    22   10   81 1    
    23   11   12 ar   
    24   11   71 1    
    25   12   13 ar   
    26   12   82 1    
    27   13   14 ar   
    28   13   15 1    
    29   14   83 1    
    30   15   16 1    
    31   15   84 1    
    32   15   85 1    
    33   16   17 1    
    34   17   18 1    
    35   17   86 1    
    36   17   87 1    
    37   18   19 1    
    38   18   37 1    
    39   18   88 1    
    40   19   20 am   BACKBONE|DICT|INTERRES
    41   19   89 1    
    42   20   21 2    
    43   20   22 1    
    44   22   23 1    
    45   22   24 1    
    46   22   90 1    
    47   23   91 1    
    48   23   92 1    
    49   23   93 1    
    50   24   25 am   BACKBONE|DICT|INTERRES
    51   24   94 1    
    52   25   26 2    
    53   25   27 1    
    54   27   28 1    
    55   27   29 1    
    56   27   95 1    
    57   28   96 1    
    58   28   97 1    
    59   28   98 1    
    60   29   30 am   BACKBONE|DICT|INTERRES
    61   29   99 1    
    62   30   31 2    
    63   30   32 1    
    64   32   33 1    
    65   32   34 1    
    66   32  100 1    
    67   33  101 1    
    68   33  102 1    
    69   33  103 1    
    70   34   35 am   BACKBONE|DICT|INTERRES
    71   34  104 1    
    72   35   36 2    
    73   37   38 2    
    74   37   39 am   BACKBONE|DICT|INTERRES
    75   39   40 1    
    76   39  105 1    
    77   40   41 1    
    78   40   42 1    
    79   40  106 1    
    80   41  107 1    
    81   41  108 1    
    82   41  109 1    
    83   42   43 2    
    84   42   44 am   BACKBONE|DICT|INTERRES
    85   44   45 1    
    86   44  110 1    
    87   45   46 1    
    88   45   47 1    
    89   45  111 1    
    90   46  112 1    
    91   46  113 1    
    92   46  114 1    
    93   47   48 2    
    94   47   49 am   BACKBONE|DICT|INTERRES
    95   49   50 1    
    96   49  115 1    
    97   50   51 1    
    98   50   52 1    
    99   50  116 1    
   100   51  117 1    
   101   51  118 1    
   102   51  119 1    
   103   52   53 2    
   104   52   54 am   BACKBONE|DICT|INTERRES
   105   54   55 1    
   106   54  120 1    
   107   55   56 1    
   108   55   57 1    
   109   55  121 1    
   110   56  122 1    
   111   56  123 1    
   112   56  124 1    
   113   57   58 2    
   114   57   59 am   BACKBONE|DICT|INTERRES
   115   59   60 1    
   116   59  125 1    
   117   60   61 1    
   118   60   62 1    
   119   60  126 1    
   120   61  127 1    
   121   61  128 1    
   122   61  129 1    
   123   62   63 2    
   124   62   64 am   BACKBONE|DICT|INTERRES
   125   64   65 1    
   126   64  130 1    
   127   65   66 1    
   128   65   69 1    
   129   65  131 1    
   130   66   67 am   BACKBONE|DICT|INTERRES
   131   66   68 2    
   132   67  132 1    
   133   67  133 1    
   134   69   70 1    
   135   69  134 1    
   136   69  135 1    
   137   70   71 1    
   138   71  136 1    
   139   71  137 1    
@<TRIPOS>SUBSTRUCTURE
     1 UNK         1 GROUP             0       ****    0 ROOT    
