@<TRIPOS>MOLECULE
3R137
137   139    1
SMALL
USER_CHARGES


@<TRIPOS>ATOM
      1 CA         24.3190   -6.2813   -2.6873 C.3       0 UNK        -0.2020 
      2 C          24.7070   -5.1664   -1.7287 C.2       0 UNK         0.4855 
      3 O          23.8522   -4.3773   -1.3245 O.2       0 UNK        -0.5197 
      4 N          25.9943   -5.0882   -1.3704 N.am      1 UNK        -0.4892 
      5 CA         26.5955   -4.0549   -0.5202 C.3       1 UNK         0.0835 
      6 C6         28.0784   -4.3628   -0.1713 C.3       12 UNK        -0.0855 
      7 S7         29.0604   -5.0938   -1.5333 S.3       12 UNK        -0.2931 
      8 C8         30.7077   -4.3800   -1.2440 C.3       12 UNK         0.0378 
      9 C9         30.9406   -3.1394   -2.0920 C.ar      12 UNK        -0.0802 
     10 C10        31.3829   -3.2758   -3.4102 C.ar      12 UNK        -0.0944 
     11 C11        31.6439   -2.1488   -4.1930 C.ar      12 UNK        -0.0787 
     12 C12        31.4666   -0.8746   -3.6462 C.ar      12 UNK        -0.0862 
     13 C13        31.0046   -0.7228   -2.3333 C.ar      12 UNK        -0.0733 
     14 C14        30.7441   -1.8612   -1.5614 C.ar      12 UNK        -0.0832 
     15 C15        30.8033    0.6645   -1.7298 C.3       12 UNK         0.0240 
     16 S16        29.7930    1.7777   -2.7653 S.3       12 UNK        -0.2522 
     17 C17        28.2714    0.8029   -3.0147 C.3       12 UNK        -0.0967 
     18 CA         28.1079    0.3632   -4.4933 C.3       5 UNK         0.0660 
     19 N          27.4552   -0.9480   -4.6033 N.am      5 UNK        -0.4015 
     20 C          27.1903   -1.6081   -5.7428 C.2       4 UNK         0.4946 
     21 O          27.4414   -1.1747   -6.8671 O.2       4 UNK        -0.5353 
     22 CA         26.4535   -2.9480   -5.6025 C.3       4 UNK         0.0277 
     23 CB         27.3893   -4.0553   -5.0871 C.3       4 UNK        -0.1981 
     24 N          25.3031   -2.7936   -4.7110 N.am      4 UNK        -0.4209 
     25 C          24.1265   -2.2756   -5.0970 C.2       3 UNK         0.4942 
     26 O          23.8366   -2.0400   -6.2698 O.2       3 UNK        -0.5208 
     27 CA         23.1026   -1.9322   -3.9997 C.3       3 UNK         0.0250 
     28 CB         22.0374   -3.0335   -3.8791 C.3       3 UNK        -0.1990 
     29 N          23.7185   -1.6864   -2.6921 N.am      3 UNK        -0.4232 
     30 C          24.4443   -0.5945   -2.4034 C.2       2 UNK         0.4993 
     31 O          24.6408    0.3214   -3.2007 O.2       2 UNK        -0.5286 
     32 CA         25.1150   -0.5318   -1.0191 C.3       2 UNK         0.0209 
     33 CB         24.1796    0.1348    0.0015 C.3       2 UNK        -0.1931 
     34 N          25.5402   -1.8402   -0.5130 N.am      2 UNK        -0.4546 
     35 C          26.4032   -2.6550   -1.1358 C.2       1 UNK         0.5154 
     36 O          26.9691   -2.3608   -2.1899 O.2       1 UNK        -0.5181 
     37 C          27.4288    1.4671   -5.3347 C.2       5 UNK         0.5014 
     38 O          28.1230    2.3209   -5.8889 O.2       5 UNK        -0.5248 
     39 N          26.0954    1.3933   -5.4693 N.am      6 UNK        -0.4434 
     40 CA         25.2495    2.2346   -6.3234 C.3       6 UNK         0.0363 
     41 CB         23.7879    1.7807   -6.1770 C.3       6 UNK        -0.1936 
     42 C          25.6454    2.2842   -7.8149 C.2       6 UNK         0.5081 
     43 O          25.2252    3.2145   -8.5039 O.2       6 UNK        -0.5248 
     44 N          26.4584    1.3277   -8.2927 N.am      7 UNK        -0.4718 
     45 CA         27.0945    1.3637   -9.6148 C.3       7 UNK         0.0273 
     46 CB         27.7607    0.0073   -9.8941 C.3       7 UNK        -0.1935 
     47 C          28.1246    2.5008   -9.7745 C.2       7 UNK         0.5018 
     48 O          28.4241    2.8736  -10.9097 O.2       7 UNK        -0.5186 
     49 N          28.6497    3.0222   -8.6531 N.am      8 UNK        -0.4240 
     50 CA         29.5762    4.1516   -8.4915 C.3       8 UNK         0.0235 
     51 CB         28.9669    5.4603   -9.0304 C.3       8 UNK        -0.2000 
     52 C          30.9892    3.9261   -9.0547 C.2       8 UNK         0.4941 
     53 O          31.9658    4.1922   -8.3524 O.2       8 UNK        -0.5273 
     54 N          31.0927    3.4286  -10.2920 N.am      9 UNK        -0.4262 
     55 CA         32.3341    3.1822  -11.0324 C.3       9 UNK         0.0264 
     56 CB         32.0042    3.1230  -12.5358 C.3       9 UNK        -0.1955 
     57 C          33.0895    1.9289  -10.5432 C.2       9 UNK         0.5031 
     58 O          33.4061    1.0491  -11.3467 O.2       9 UNK        -0.5390 
     59 N          33.3378    1.8560   -9.2270 N.am      10 UNK        -0.4204 
     60 CA         34.0624    0.8029   -8.4983 C.3       10 UNK         0.0237 
     61 CB         35.5750    0.9129   -8.7850 C.3       10 UNK        -0.1985 
     62 C          33.5211   -0.6239   -8.7379 C.2       10 UNK         0.4970 
     63 O          34.2955   -1.5819   -8.7101 O.2       10 UNK        -0.4914 
     64 N          32.2075   -0.7311   -8.9832 N.am      11 UNK        -0.4285 
     65 CA         31.4945   -1.9559   -9.3865 C.3       11 UNK         0.1007 
     66 C          31.8986   -2.5068  -10.7907 C.2       11 UNK         0.5703 
     67 N          32.5539   -1.7342  -11.6503 N.am      11 UNK        -0.7361 
     68 O          31.5825   -3.6454  -11.1284 O.2       11 UNK        -0.4986 
     69 C69        31.4884   -3.0541   -8.2838 C.3       12 UNK        -0.0947 
     70 S70        30.6889   -2.4994   -6.7428 S.3       12 UNK        -0.2240 
     71 C71        32.1117   -2.3190   -5.6287 C.3       12 UNK         0.0194 
     72 H72        23.4253   -6.7916   -2.3290 H         1 UNK         0.0906 
     73 H73        24.1070   -5.8717   -3.6744 H         1 UNK         0.0906 
     74 H74        25.1120   -7.0219   -2.7897 H         1 UNK         0.0906 
     75 H75        26.6635   -5.7379   -1.7612 H         1 UNK         0.3140 
     76 H76        26.0427   -4.0710    0.4218 H         1 UNK         0.1085 
     77 H77        28.1044   -5.0805    0.6501 H         1 UNK         0.0836 
     78 H78        28.5778   -3.4712    0.2130 H         1 UNK         0.0836 
     79 H79        31.4581   -5.1321   -1.4927 H         1 UNK         0.0731 
     80 H80        30.8478   -4.1607   -0.1844 H         1 UNK         0.0731 
     81 H81        31.5224   -4.2632   -3.8290 H         1 UNK         0.1312 
     82 H82        31.6712    0.0005   -4.2476 H         1 UNK         0.1406 
     83 H83        30.3979   -1.7545   -0.5425 H         1 UNK         0.1631 
     84 H84        31.7801    1.1234   -1.5725 H         1 UNK         0.0717 
     85 H85        30.3355    0.5941   -0.7466 H         1 UNK         0.0717 
     86 H86        28.3131   -0.0664   -2.3577 H         1 UNK         0.0934 
     87 H87        27.4138    1.3833   -2.6688 H         1 UNK         0.0934 
     88 H88        29.0988    0.2117   -4.9261 H         1 UNK         0.0739 
     89 H89        27.2441   -1.4164   -3.7241 H         1 UNK         0.3093 
     90 H90        26.1005   -3.2460   -6.5923 H         1 UNK         0.0818 
     91 H91        27.8491   -3.8015   -4.1322 H         1 UNK         0.0819 
     92 H92        26.8587   -4.9991   -4.9626 H         1 UNK         0.0819 
     93 H93        28.2016   -4.2304   -5.7935 H         1 UNK         0.0819 
     94 H94        25.4824   -2.9110   -3.7223 H         1 UNK         0.3041 
     95 H95        22.5976   -1.0137   -4.3079 H         1 UNK         0.0784 
     96 H96        21.5149   -3.1732   -4.8264 H         1 UNK         0.0793 
     97 H97        22.4727   -3.9939   -3.6060 H         1 UNK         0.0793 
     98 H98        21.2869   -2.7802   -3.1302 H         1 UNK         0.0793 
     99 H99        23.6408   -2.4279   -2.0022 H         1 UNK         0.3024 
    100 H100       26.0076    0.0882   -1.1184 H         1 UNK         0.1171 
    101 H101       24.6744    0.2734    0.9631 H         1 UNK         0.0786 
    102 H102       23.8657    1.1211   -0.3438 H         1 UNK         0.0786 
    103 H103       23.2770   -0.4545    0.1687 H         1 UNK         0.0786 
    104 H104       25.0813   -2.1682    0.3252 H         1 UNK         0.2977 
    105 H105       25.6040    0.7195   -4.8890 H         1 UNK         0.3127 
    106 H106       25.3306    3.2544   -5.9426 H         1 UNK         0.0770 
    107 H107       23.6549    0.7478   -6.5007 H         1 UNK         0.0814 
    108 H108       23.1215    2.4000   -6.7791 H         1 UNK         0.0814 
    109 H109       23.4488    1.8557   -5.1437 H         1 UNK         0.0814 
    110 H110       26.7443    0.5721   -7.6756 H         1 UNK         0.2983 
    111 H111       26.3136    1.5255  -10.3608 H         1 UNK         0.0947 
    112 H112       28.2130   -0.0128  -10.8866 H         1 UNK         0.0806 
    113 H113       27.0374   -0.8072   -9.8497 H         1 UNK         0.0806 
    114 H114       28.5475   -0.2065   -9.1701 H         1 UNK         0.0806 
    115 H115       28.3490    2.6149   -7.7697 H         1 UNK         0.3000 
    116 H116       29.6918    4.2703   -7.4127 H         1 UNK         0.0850 
    117 H117       29.6176    6.3092   -8.8165 H         1 UNK         0.0810 
    118 H118       28.0020    5.6664   -8.5666 H         1 UNK         0.0810 
    119 H119       28.8191    5.4300  -10.1103 H         1 UNK         0.0810 
    120 H120       30.2193    3.2105  -10.7687 H         1 UNK         0.3040 
    121 H121       33.0009    4.0324  -10.8738 H         1 UNK         0.0766 
    122 H122       32.9085    2.9931  -13.1320 H         1 UNK         0.0812 
    123 H123       31.3363    2.2925  -12.7683 H         1 UNK         0.0812 
    124 H124       31.5258    4.0424  -12.8738 H         1 UNK         0.0812 
    125 H125       33.0012    2.6379   -8.6674 H         1 UNK         0.3205 
    126 H126       33.9104    1.0058   -7.4372 H         1 UNK         0.0754 
    127 H127       36.1472    0.2278   -8.1581 H         1 UNK         0.0769 
    128 H128       35.9451    1.9179   -8.5821 H         1 UNK         0.0769 
    129 H129       35.8048    0.6746   -9.8242 H         1 UNK         0.0769 
    130 H130       31.6575    0.1140   -8.9911 H         1 UNK         0.2981 
    131 H131       30.4588   -1.6453   -9.5229 H         1 UNK         0.0541 
    132 H132       32.8255   -0.7841  -11.4125 H         1 UNK         0.3459 
    133 H133       32.7934   -2.1063  -12.5549 H         1 UNK         0.3459 
    134 H134       30.9269   -3.9271   -8.6201 H         1 UNK         0.0612 
    135 H135       32.4979   -3.4123   -8.0794 H         1 UNK         0.0612 
    136 H136       32.7535   -3.1979   -5.7054 H         1 UNK         0.0624 
    137 H137       32.7128   -1.4640   -5.9400 H         1 UNK         0.0624 
@<TRIPOS>BOND
     1    1    2 1    
     2    1   72 1    
     3    1   73 1    
     4    1   74 1    
     5    2    3 2    
     6    2    4 am   BACKBONE|DICT|INTERRES
     7    4    5 1    
     8    4   75 1    
     9    5    6 1    
    10    5   35 1    
    11    5   76 1    
    12    6    7 1    
    13    6   77 1    
    14    6   78 1    
    15    7    8 1    
    16    8    9 1    
    17    8   79 1    
    18    8   80 1    
    19    9   10 ar   
    20    9   14 ar   
    21   10   11 ar   
    22   10   81 1    
    23   11   12 ar   
    24   11   71 1    
    25   12   13 ar   
    26   12   82 1    
    27   13   14 ar   
    28   13   15 1    
    29   14   83 1    
    30   15   16 1    
    31   15   84 1    
    32   15   85 1    
    33   16   17 1    
    34   17   18 1    
    35   17   86 1    
    36   17   87 1    
    37   18   19 1    
    38   18   37 1    
    39   18   88 1    
    40   19   20 am   BACKBONE|DICT|INTERRES
    41   19   89 1    
    42   20   21 2    
    43   20   22 1    
    44   22   23 1    
    45   22   24 1    
    46   22   90 1    
    47   23   91 1    
    48   23   92 1    
    49   23   93 1    
    50   24   25 am   BACKBONE|DICT|INTERRES
    51   24   94 1    
    52   25   26 2    
    53   25   27 1    
    54   27   28 1    
    55   27   29 1    
    56   27   95 1    
    57   28   96 1    
    58   28   97 1    
    59   28   98 1    
    60   29   30 am   BACKBONE|DICT|INTERRES
    61   29   99 1    
    62   30   31 2    
    63   30   32 1    
    64   32   33 1    
    65   32   34 1    
    66   32  100 1    
    67   33  101 1    
    68   33  102 1    
    69   33  103 1    
    70   34   35 am   BACKBONE|DICT|INTERRES
    71   34  104 1    
    72   35   36 2    
    73   37   38 2    
    74   37   39 am   BACKBONE|DICT|INTERRES
    75   39   40 1    
    76   39  105 1    
    77   40   41 1    
    78   40   42 1    
    79   40  106 1    
    80   41  107 1    
    81   41  108 1    
    82   41  109 1    
    83   42   43 2    
    84   42   44 am   BACKBONE|DICT|INTERRES
    85   44   45 1    
    86   44  110 1    
    87   45   46 1    
    88   45   47 1    
    89   45  111 1    
    90   46  112 1    
    91   46  113 1    
    92   46  114 1    
    93   47   48 2    
    94   47   49 am   BACKBONE|DICT|INTERRES
    95   49   50 1    
    96   49  115 1    
    97   50   51 1    
    98   50   52 1    
    99   50  116 1    
   100   51  117 1    
   101   51  118 1    
   102   51  119 1    
   103   52   53 2    
   104   52   54 am   BACKBONE|DICT|INTERRES
   105   54   55 1    
   106   54  120 1    
   107   55   56 1    
   108   55   57 1    
   109   55  121 1    
   110   56  122 1    
   111   56  123 1    
   112   56  124 1    
   113   57   58 2    
   114   57   59 am   BACKBONE|DICT|INTERRES
   115   59   60 1    
   116   59  125 1    
   117   60   61 1    
   118   60   62 1    
   119   60  126 1    
   120   61  127 1    
   121   61  128 1    
   122   61  129 1    
   123   62   63 2    
   124   62   64 am   BACKBONE|DICT|INTERRES
   125   64   65 1    
   126   64  130 1    
   127   65   66 1    
   128   65   69 1    
   129   65  131 1    
   130   66   67 am   BACKBONE|DICT|INTERRES
   131   66   68 2    
   132   67  132 1    
   133   67  133 1    
   134   69   70 1    
   135   69  134 1    
   136   69  135 1    
   137   70   71 1    
   138   71  136 1    
   139   71  137 1    
@<TRIPOS>SUBSTRUCTURE
     1 UNK         1 GROUP             0       ****    0 ROOT    
