@<TRIPOS>MOLECULE
3R137
137   139    1
SMALL
USER_CHARGES


@<TRIPOS>ATOM
      1 CA         26.2378   -6.0448   -8.7690 C.3       0 UNK        -0.2020 
      2 C          26.2512   -5.9988   -7.2483 C.2       0 UNK         0.4855 
      3 O          25.8246   -6.9594   -6.6057 O.2       0 UNK        -0.5197 
      4 N          26.7423   -4.8970   -6.6701 N.am      1 UNK        -0.4892 
      5 CA         26.7623   -4.6571   -5.2212 C.3       1 UNK         0.0835 
      6 C6         27.9104   -3.7013   -4.8133 C.3       12 UNK        -0.0855 
      7 S7         29.5357   -4.4875   -5.1000 S.3       12 UNK        -0.2931 
      8 C8         30.2533   -4.5875   -3.4282 C.3       12 UNK         0.0378 
      9 C9         30.9851   -3.3103   -3.0339 C.ar      12 UNK        -0.0802 
     10 C10        32.1693   -2.9527   -3.6875 C.ar      12 UNK        -0.0944 
     11 C11        32.8666   -1.7956   -3.3250 C.ar      12 UNK        -0.0787 
     12 C12        32.3848   -1.0067   -2.2764 C.ar      12 UNK        -0.0862 
     13 C13        31.2216   -1.3720   -1.5899 C.ar      12 UNK        -0.0733 
     14 C14        30.5167   -2.5147   -1.9837 C.ar      12 UNK        -0.0832 
     15 C15        30.7616   -0.5710   -0.3792 C.3       12 UNK         0.0240 
     16 S16        29.2540    0.3910   -0.7052 S.3       12 UNK        -0.2522 
     17 C17        29.8583    1.6481   -1.8813 C.3       12 UNK        -0.0967 
     18 CA         29.1726    1.5186   -3.2647 C.3       5 UNK         0.0660 
     19 N          27.7173    1.6760   -3.1583 N.am      5 UNK        -0.4015 
     20 C          26.8144    1.1140   -3.9673 C.2       4 UNK         0.4946 
     21 O          27.0968    0.3406   -4.8853 O.2       4 UNK        -0.5353 
     22 CA         25.3697    1.5799   -3.7898 C.3       4 UNK         0.0277 
     23 CB         25.0979    2.7878   -4.7105 C.3       4 UNK        -0.1981 
     24 N          24.4679    0.4765   -4.1057 N.am      4 UNK        -0.4209 
     25 C          23.1611    0.4503   -3.8167 C.2       3 UNK         0.4942 
     26 O          22.5635    1.3679   -3.2521 O.2       3 UNK        -0.5208 
     27 CA         22.3813   -0.8109   -4.2158 C.3       3 UNK         0.0250 
     28 CB         21.9764   -0.7604   -5.6975 C.3       3 UNK        -0.1990 
     29 N          23.1012   -2.0562   -3.9451 N.am      3 UNK        -0.4232 
     30 C          23.3482   -2.5547   -2.7286 C.2       2 UNK         0.4993 
     31 O          23.0819   -1.9639   -1.6815 O.2       2 UNK        -0.5286 
     32 CA         23.9422   -3.9739   -2.6519 C.3       2 UNK         0.0209 
     33 CB         22.8723   -5.0284   -3.0000 C.3       2 UNK        -0.1931 
     34 N          25.1775   -4.2144   -3.4151 N.am      2 UNK        -0.4546 
     35 C          25.3868   -4.1503   -4.7388 C.2       1 UNK         0.5154 
     36 O          24.5543   -3.7343   -5.5506 O.2       1 UNK        -0.5181 
     37 C          29.7192    2.5365   -4.2907 C.2       5 UNK         0.5014 
     38 O          30.5919    3.3423   -3.9631 O.2       5 UNK        -0.5248 
     39 N          29.1434    2.5210   -5.4974 N.am      6 UNK        -0.4434 
     40 CA         29.3745    3.4870   -6.5662 C.3       6 UNK         0.0363 
     41 CB         28.4212    4.6898   -6.3989 C.3       6 UNK        -0.1936 
     42 C          29.2519    2.7552   -7.9074 C.2       6 UNK         0.5081 
     43 O          29.9170    1.7341   -8.0859 O.2       6 UNK        -0.5248 
     44 N          28.4048    3.2482   -8.8214 N.am      7 UNK        -0.4718 
     45 CA         28.1844    2.6888  -10.1622 C.3       7 UNK         0.0273 
     46 CB         27.2374    3.6091  -10.9485 C.3       7 UNK        -0.1935 
     47 C          27.6563    1.2422  -10.1675 C.2       7 UNK         0.5018 
     48 O          28.0084    0.4778  -11.0650 O.2       7 UNK        -0.5186 
     49 N          26.8649    0.8805   -9.1469 N.am      8 UNK        -0.4240 
     50 CA         26.3736   -0.4831   -8.9138 C.3       8 UNK         0.0235 
     51 CB         25.2062   -0.4370   -7.9152 C.3       8 UNK        -0.2000 
     52 C          27.4619   -1.4586   -8.4240 C.2       8 UNK         0.4941 
     53 O          27.2542   -2.6705   -8.4936 O.2       8 UNK        -0.5273 
     54 N          28.5872   -0.9256   -7.9343 N.am      9 UNK        -0.4262 
     55 CA         29.7488   -1.6874   -7.4810 C.3       9 UNK         0.0264 
     56 CB         30.2053   -1.1031   -6.1354 C.3       9 UNK        -0.1955 
     57 C          30.9147   -1.6398   -8.4810 C.2       9 UNK         0.5031 
     58 O          31.7712   -2.5232   -8.4415 O.2       9 UNK        -0.5390 
     59 N          30.9465   -0.5913   -9.3183 N.am      10 UNK        -0.4204 
     60 CA         32.0907   -0.1027  -10.0968 C.3       10 UNK         0.0237 
     61 CB         32.5679   -1.1374  -11.1387 C.3       10 UNK        -0.1985 
     62 C          33.2174    0.4165   -9.1771 C.2       10 UNK         0.4970 
     63 O          34.3961    0.2673   -9.5044 O.2       10 UNK        -0.4914 
     64 N          32.8217    1.0184   -8.0464 N.am      11 UNK        -0.4285 
     65 CA         33.7014    1.5478   -6.9899 C.3       11 UNK         0.1007 
     66 C          33.5950    3.0927   -6.8368 C.2       11 UNK         0.5703 
     67 N          32.9107    3.8039   -7.7265 N.am      11 UNK        -0.7361 
     68 O          34.1702    3.6658   -5.9149 O.2       11 UNK        -0.4986 
     69 C69        33.4896    0.8027   -5.6395 C.3       12 UNK        -0.0947 
     70 S70        33.9314   -0.9633   -5.7654 S.3       12 UNK        -0.2240 
     71 C71        34.1729   -1.4401   -4.0248 C.3       12 UNK         0.0194 
     72 H72        26.7651   -5.1978   -9.2069 H         1 UNK         0.0906 
     73 H73        26.7166   -6.9576   -9.1223 H         1 UNK         0.0906 
     74 H74        25.2118   -6.0328   -9.1352 H         1 UNK         0.0906 
     75 H75        27.0183   -4.1110   -7.2558 H         1 UNK         0.3140 
     76 H76        26.9315   -5.6134   -4.7203 H         1 UNK         0.1085 
     77 H77        27.8389   -3.4076   -3.7647 H         1 UNK         0.0836 
     78 H78        27.8466   -2.7768   -5.3880 H         1 UNK         0.0836 
     79 H79        30.9647   -5.4144   -3.4085 H         1 UNK         0.0731 
     80 H80        29.4772   -4.8422   -2.7050 H         1 UNK         0.0731 
     81 H81        32.5450   -3.5735   -4.4897 H         1 UNK         0.1312 
     82 H82        32.9353   -0.1270   -1.9722 H         1 UNK         0.1406 
     83 H83        29.6177   -2.7953   -1.4518 H         1 UNK         0.1631 
     84 H84        31.5489    0.0997   -0.0311 H         1 UNK         0.0717 
     85 H85        30.5648   -1.2566    0.4462 H         1 UNK         0.0717 
     86 H86        29.6768    2.6343   -1.4497 H         1 UNK         0.0934 
     87 H87        30.9414    1.5613   -1.9829 H         1 UNK         0.0934 
     88 H88        29.3990    0.5227   -3.6513 H         1 UNK         0.0739 
     89 H89        27.4009    2.3254   -2.4529 H         1 UNK         0.3093 
     90 H90        25.2159    1.8689   -2.7478 H         1 UNK         0.0818 
     91 H91        25.7958    3.6014   -4.5085 H         1 UNK         0.0819 
     92 H92        25.2018    2.5214   -5.7631 H         1 UNK         0.0819 
     93 H93        24.0945    3.1880   -4.5663 H         1 UNK         0.0819 
     94 H94        24.9063   -0.3188   -4.5526 H         1 UNK         0.3041 
     95 H95        21.4649   -0.8258   -3.6215 H         1 UNK         0.0784 
     96 H96        21.4337    0.1584   -5.9243 H         1 UNK         0.0793 
     97 H97        22.8443   -0.7982   -6.3546 H         1 UNK         0.0793 
     98 H98        21.3241   -1.5942   -5.9580 H         1 UNK         0.0793 
     99 H99        23.4139   -2.6091   -4.7423 H         1 UNK         0.3024 
    100 H100       24.2129   -4.1281   -1.6055 H         1 UNK         0.1171 
    101 H101       22.5627   -4.9685   -4.0440 H         1 UNK         0.0786 
    102 H102       23.2389   -6.0388   -2.8186 H         1 UNK         0.0786 
    103 H103       21.9785   -4.8951   -2.3888 H         1 UNK         0.0786 
    104 H104       25.9505   -4.5326   -2.8466 H         1 UNK         0.2977 
    105 H105       28.4650    1.7906   -5.6854 H         1 UNK         0.3127 
    106 H106       30.4016    3.8505   -6.5074 H         1 UNK         0.0770 
    107 H107       28.6015    5.4500   -7.1601 H         1 UNK         0.0814 
    108 H108       28.5710    5.1736   -5.4334 H         1 UNK         0.0814 
    109 H109       27.3731    4.3937   -6.4562 H         1 UNK         0.0814 
    110 H110       27.8953    4.0907   -8.5955 H         1 UNK         0.2983 
    111 H111       29.1499    2.6778  -10.6732 H         1 UNK         0.0947 
    112 H112       27.0737    3.2299  -11.9585 H         1 UNK         0.0806 
    113 H113       27.6496    4.6136  -11.0463 H         1 UNK         0.0806 
    114 H114       26.2611    3.6907  -10.4691 H         1 UNK         0.0806 
    115 H115       26.6171    1.5805   -8.4633 H         1 UNK         0.3000 
    116 H116       25.9959   -0.8764   -9.8602 H         1 UNK         0.0850 
    117 H117       25.5087   -0.0105   -6.9594 H         1 UNK         0.0810 
    118 H118       24.8238   -1.4398   -7.7169 H         1 UNK         0.0810 
    119 H119       24.3767    0.1558   -8.3008 H         1 UNK         0.0810 
    120 H120       28.6744    0.0818   -7.9024 H         1 UNK         0.3040 
    121 H121       29.4844   -2.7358   -7.3418 H         1 UNK         0.0766 
    122 H122       29.4218   -1.1550   -5.3819 H         1 UNK         0.0812 
    123 H123       30.5114   -0.0623   -6.2246 H         1 UNK         0.0812 
    124 H124       31.0571   -1.6601   -5.7522 H         1 UNK         0.0812 
    125 H125       30.2005    0.0859   -9.2146 H         1 UNK         0.3205 
    126 H126       31.7270    0.7673  -10.6453 H         1 UNK         0.0754 
    127 H127       33.3001   -0.6967  -11.8162 H         1 UNK         0.0769 
    128 H128       31.7387   -1.4978  -11.7475 H         1 UNK         0.0769 
    129 H129       33.0418   -2.0003  -10.6704 H         1 UNK         0.0769 
    130 H130       31.8276    1.1473   -7.8924 H         1 UNK         0.2981 
    131 H131       34.7404    1.3862   -7.2814 H         1 UNK         0.0541 
    132 H132       32.4746    3.3556   -8.5153 H         1 UNK         0.3459 
    133 H133       32.8721    4.8058   -7.6269 H         1 UNK         0.3459 
    134 H134       32.4573    0.8925   -5.2991 H         1 UNK         0.0612 
    135 H135       34.1096    1.2449   -4.8580 H         1 UNK         0.0612 
    136 H136       34.7026   -0.6468   -3.4955 H         1 UNK         0.0624 
    137 H137       34.8292   -2.3109   -3.9968 H         1 UNK         0.0624 
@<TRIPOS>BOND
     1    1    2 1    
     2    1   72 1    
     3    1   73 1    
     4    1   74 1    
     5    2    3 2    
     6    2    4 am   BACKBONE|DICT|INTERRES
     7    4    5 1    
     8    4   75 1    
     9    5    6 1    
    10    5   35 1    
    11    5   76 1    
    12    6    7 1    
    13    6   77 1    
    14    6   78 1    
    15    7    8 1    
    16    8    9 1    
    17    8   79 1    
    18    8   80 1    
    19    9   10 ar   
    20    9   14 ar   
    21   10   11 ar   
    22   10   81 1    
    23   11   12 ar   
    24   11   71 1    
    25   12   13 ar   
    26   12   82 1    
    27   13   14 ar   
    28   13   15 1    
    29   14   83 1    
    30   15   16 1    
    31   15   84 1    
    32   15   85 1    
    33   16   17 1    
    34   17   18 1    
    35   17   86 1    
    36   17   87 1    
    37   18   19 1    
    38   18   37 1    
    39   18   88 1    
    40   19   20 am   BACKBONE|DICT|INTERRES
    41   19   89 1    
    42   20   21 2    
    43   20   22 1    
    44   22   23 1    
    45   22   24 1    
    46   22   90 1    
    47   23   91 1    
    48   23   92 1    
    49   23   93 1    
    50   24   25 am   BACKBONE|DICT|INTERRES
    51   24   94 1    
    52   25   26 2    
    53   25   27 1    
    54   27   28 1    
    55   27   29 1    
    56   27   95 1    
    57   28   96 1    
    58   28   97 1    
    59   28   98 1    
    60   29   30 am   BACKBONE|DICT|INTERRES
    61   29   99 1    
    62   30   31 2    
    63   30   32 1    
    64   32   33 1    
    65   32   34 1    
    66   32  100 1    
    67   33  101 1    
    68   33  102 1    
    69   33  103 1    
    70   34   35 am   BACKBONE|DICT|INTERRES
    71   34  104 1    
    72   35   36 2    
    73   37   38 2    
    74   37   39 am   BACKBONE|DICT|INTERRES
    75   39   40 1    
    76   39  105 1    
    77   40   41 1    
    78   40   42 1    
    79   40  106 1    
    80   41  107 1    
    81   41  108 1    
    82   41  109 1    
    83   42   43 2    
    84   42   44 am   BACKBONE|DICT|INTERRES
    85   44   45 1    
    86   44  110 1    
    87   45   46 1    
    88   45   47 1    
    89   45  111 1    
    90   46  112 1    
    91   46  113 1    
    92   46  114 1    
    93   47   48 2    
    94   47   49 am   BACKBONE|DICT|INTERRES
    95   49   50 1    
    96   49  115 1    
    97   50   51 1    
    98   50   52 1    
    99   50  116 1    
   100   51  117 1    
   101   51  118 1    
   102   51  119 1    
   103   52   53 2    
   104   52   54 am   BACKBONE|DICT|INTERRES
   105   54   55 1    
   106   54  120 1    
   107   55   56 1    
   108   55   57 1    
   109   55  121 1    
   110   56  122 1    
   111   56  123 1    
   112   56  124 1    
   113   57   58 2    
   114   57   59 am   BACKBONE|DICT|INTERRES
   115   59   60 1    
   116   59  125 1    
   117   60   61 1    
   118   60   62 1    
   119   60  126 1    
   120   61  127 1    
   121   61  128 1    
   122   61  129 1    
   123   62   63 2    
   124   62   64 am   BACKBONE|DICT|INTERRES
   125   64   65 1    
   126   64  130 1    
   127   65   66 1    
   128   65   69 1    
   129   65  131 1    
   130   66   67 am   BACKBONE|DICT|INTERRES
   131   66   68 2    
   132   67  132 1    
   133   67  133 1    
   134   69   70 1    
   135   69  134 1    
   136   69  135 1    
   137   70   71 1    
   138   71  136 1    
   139   71  137 1    
@<TRIPOS>SUBSTRUCTURE
     1 UNK         1 GROUP             0       ****    0 ROOT    
