@<TRIPOS>MOLECULE
3R137
137   139    1
SMALL
USER_CHARGES


@<TRIPOS>ATOM
      1 CA         30.7944   -0.1520   -0.4167 C.3       0 UNK        -0.2020 
      2 C          29.6880   -1.1959   -0.4239 C.2       0 UNK         0.4855 
      3 O          28.8873   -1.2413    0.5103 O.2       0 UNK        -0.5197 
      4 N          29.6268   -2.0168   -1.4805 N.am      1 UNK        -0.4892 
      5 CA         28.6997   -3.1378   -1.7259 C.3       1 UNK         0.0835 
      6 C6         28.7485   -4.2737   -0.6621 C.3       12 UNK        -0.0855 
      7 S7         30.4259   -4.8383   -0.2017 S.3       12 UNK        -0.2931 
      8 C8         30.7998   -6.0776   -1.4866 C.3       12 UNK         0.0378 
      9 C9         31.0297   -5.4220   -2.8399 C.ar      12 UNK        -0.0802 
     10 C10        32.0863   -4.5200   -3.0070 C.ar      12 UNK        -0.0944 
     11 C11        32.2545   -3.8456   -4.2178 C.ar      12 UNK        -0.0787 
     12 C12        31.3825   -4.1030   -5.2747 C.ar      12 UNK        -0.0862 
     13 C13        30.3193   -4.9939   -5.1203 C.ar      12 UNK        -0.0733 
     14 C14        30.1574   -5.6690   -3.9063 C.ar      12 UNK        -0.0832 
     15 C15        29.3171   -5.1774   -6.2492 C.3       12 UNK         0.0240 
     16 S16        27.7647   -4.2862   -5.9087 S.3       12 UNK        -0.2522 
     17 C17        28.2973   -2.5367   -5.8354 C.3       12 UNK        -0.0967 
     18 CA         27.4772   -1.6464   -6.7934 C.3       5 UNK         0.0660 
     19 N          26.0490   -1.6539   -6.4667 N.am      5 UNK        -0.4015 
     20 C          25.0838   -1.2692   -7.3111 C.2       4 UNK         0.4946 
     21 O          25.2953   -0.8529   -8.4507 O.2       4 UNK        -0.5353 
     22 CA         23.6433   -1.3269   -6.7778 C.3       4 UNK         0.0277 
     23 CB         23.1452   -2.7794   -6.6971 C.3       4 UNK        -0.1981 
     24 N          23.4948   -0.6773   -5.4722 N.am      4 UNK        -0.4209 
     25 C          23.6955    0.6302   -5.2549 C.2       3 UNK         0.4942 
     26 O          24.0265    1.4254   -6.1306 O.2       3 UNK        -0.5208 
     27 CA         23.5198    1.1490   -3.8200 C.3       3 UNK         0.0250 
     28 CB         22.0573    1.5531   -3.5740 C.3       3 UNK        -0.1990 
     29 N          23.9529    0.2239   -2.7699 N.am      3 UNK        -0.4232 
     30 C          25.1752   -0.3125   -2.6441 C.2       2 UNK         0.4993 
     31 O          26.0779   -0.1679   -3.4753 O.2       2 UNK        -0.5286 
     32 CA         25.4119   -1.1002   -1.3397 C.3       2 UNK         0.0209 
     33 CB         24.3046   -2.1448   -1.0675 C.3       2 UNK        -0.1931 
     34 N          26.7417   -1.7140   -1.2610 N.am      2 UNK        -0.4546 
     35 C          27.2368   -2.7179   -1.9948 C.2       1 UNK         0.5154 
     36 O          26.5893   -3.3201   -2.8512 O.2       1 UNK        -0.5181 
     37 C          28.0392   -0.2118   -6.8553 C.2       5 UNK         0.5014 
     38 O          28.9311    0.0487   -7.6673 O.2       5 UNK        -0.5248 
     39 N          27.4911    0.6978   -6.0338 N.am      6 UNK        -0.4434 
     40 CA         27.7867    2.1306   -6.0788 C.3       6 UNK         0.0363 
     41 CB         27.1912    2.8292   -4.8474 C.3       6 UNK        -0.1936 
     42 C          27.2946    2.7879   -7.3802 C.2       6 UNK         0.5081 
     43 O          28.0571    3.5249   -8.0030 O.2       6 UNK        -0.5248 
     44 N          26.0573    2.4817   -7.8003 N.am      7 UNK        -0.4718 
     45 CA         25.4655    2.9419   -9.0633 C.3       7 UNK         0.0273 
     46 CB         23.9718    2.5833   -9.1039 C.3       7 UNK        -0.1935 
     47 C          26.1856    2.3870  -10.3030 C.2       7 UNK         0.5018 
     48 O          26.3253    3.1061  -11.2927 O.2       7 UNK        -0.5186 
     49 N          26.6694    1.1400  -10.2120 N.am      8 UNK        -0.4240 
     50 CA         27.5417    0.5079  -11.2066 C.3       8 UNK         0.0235 
     51 CB         27.5794   -1.0076  -10.9490 C.3       8 UNK        -0.2000 
     52 C          28.9738    1.0817  -11.2300 C.2       8 UNK         0.4941 
     53 O          29.7188    0.7695  -12.1598 O.2       8 UNK        -0.5273 
     54 N          29.3372    1.8854  -10.2169 N.am      9 UNK        -0.4262 
     55 CA         30.6451    2.5055   -9.9813 C.3       9 UNK         0.0264 
     56 CB         30.9712    3.5415  -11.0782 C.3       9 UNK        -0.1955 
     57 C          31.7698    1.4760   -9.7652 C.2       9 UNK         0.5031 
     58 O          32.9087    1.7183  -10.1709 O.2       9 UNK        -0.5390 
     59 N          31.4378    0.3456   -9.1250 N.am      10 UNK        -0.4204 
     60 CA         32.3847   -0.7285   -8.8168 C.3       10 UNK         0.0237 
     61 CB         31.6074   -2.0238   -8.5458 C.3       10 UNK        -0.1985 
     62 C          33.3112   -0.3764   -7.6394 C.2       10 UNK         0.4970 
     63 O          34.4660   -0.8035   -7.6331 O.2       10 UNK        -0.4914 
     64 N          32.7974    0.4117   -6.6903 N.am      11 UNK        -0.4285 
     65 CA         33.5082    0.9883   -5.5442 C.3       11 UNK         0.1007 
     66 C          32.6722    2.1350   -4.9133 C.2       11 UNK         0.5703 
     67 N          33.2393    2.8768   -3.9716 N.am      11 UNK        -0.7361 
     68 O          31.5194    2.3684   -5.2753 O.2       11 UNK        -0.4986 
     69 C69        33.9996   -0.0643   -4.5060 C.3       12 UNK        -0.0947 
     70 S70        32.6845   -1.1640   -3.8811 S.3       12 UNK        -0.2240 
     71 C71        33.3321   -2.7898   -4.3748 C.3       12 UNK         0.0194 
     72 H72        31.4599   -0.3185    0.4299 H         1 UNK         0.0906 
     73 H73        30.3681    0.8466   -0.3242 H         1 UNK         0.0906 
     74 H74        31.3914   -0.1806   -1.3274 H         1 UNK         0.0906 
     75 H75        30.3187   -1.8976   -2.2082 H         1 UNK         0.3140 
     76 H76        29.0381   -3.5591   -2.6706 H         1 UNK         0.1085 
     77 H77        28.2615   -3.9429    0.2572 H         1 UNK         0.0836 
     78 H78        28.1750   -5.1367   -1.0062 H         1 UNK         0.0836 
     79 H79        31.6999   -6.6234   -1.2003 H         1 UNK         0.0731 
     80 H80        29.9944   -6.8123   -1.5316 H         1 UNK         0.0731 
     81 H81        32.7472   -4.3078   -2.1774 H         1 UNK         0.1312 
     82 H82        31.5088   -3.5731   -6.2055 H         1 UNK         0.1406 
     83 H83        29.3231   -6.3460   -3.7800 H         1 UNK         0.1631 
     84 H84        29.0979   -6.2388   -6.3736 H         1 UNK         0.0717 
     85 H85        29.7294   -4.8348   -7.1998 H         1 UNK         0.0717 
     86 H86        28.2042   -2.1839   -4.8074 H         1 UNK         0.0934 
     87 H87        29.3556   -2.4680   -6.0809 H         1 UNK         0.0934 
     88 H88        27.5850   -2.0650   -7.7962 H         1 UNK         0.0739 
     89 H89        25.8020   -1.9637   -5.5371 H         1 UNK         0.3093 
     90 H90        23.0104   -0.7907   -7.4885 H         1 UNK         0.0818 
     91 H91        23.2425   -3.2780   -7.6626 H         1 UNK         0.0819 
     92 H92        23.7095   -3.3652   -5.9701 H         1 UNK         0.0819 
     93 H93        22.0923   -2.8223   -6.4179 H         1 UNK         0.0819 
     94 H94        23.2298   -1.2595   -4.6913 H         1 UNK         0.3041 
     95 H95        24.1345    2.0457   -3.7249 H         1 UNK         0.0784 
     96 H96        21.7151    2.2599   -4.3317 H         1 UNK         0.0793 
     97 H97        21.3882    0.6922   -3.6062 H         1 UNK         0.0793 
     98 H98        21.9357    2.0383   -2.6054 H         1 UNK         0.0793 
     99 H99        23.2812    0.0461   -2.0372 H         1 UNK         0.3024 
    100 H100       25.3841   -0.3656   -0.5331 H         1 UNK         0.1171 
    101 H101       23.3416   -1.6701   -0.8787 H         1 UNK         0.0786 
    102 H102       24.1709   -2.8265   -1.9083 H         1 UNK         0.0786 
    103 H103       24.5363   -2.7452   -0.1875 H         1 UNK         0.0786 
    104 H104       27.3782   -1.3140   -0.5751 H         1 UNK         0.2977 
    105 H105       26.8088    0.3923   -5.3466 H         1 UNK         0.3127 
    106 H106       28.8720    2.2455   -6.0386 H         1 UNK         0.0770 
    107 H107       26.1033    2.7737   -4.8383 H         1 UNK         0.0814 
    108 H108       27.4637    3.8851   -4.8312 H         1 UNK         0.0814 
    109 H109       27.5581    2.3840   -3.9223 H         1 UNK         0.0814 
    110 H110       25.4569    1.9141   -7.2045 H         1 UNK         0.2983 
    111 H111       25.5555    4.0299   -9.0940 H         1 UNK         0.0947 
    112 H112       23.8139    1.5067   -9.0262 H         1 UNK         0.0806 
    113 H113       23.5133    2.9160  -10.0361 H         1 UNK         0.0806 
    114 H114       23.4285    3.0601   -8.2880 H         1 UNK         0.0806 
    115 H115       26.4274    0.5864   -9.3955 H         1 UNK         0.3000 
    116 H116       27.1077    0.6768  -12.1943 H         1 UNK         0.0850 
    117 H117       28.1524   -1.5214  -11.7220 H         1 UNK         0.0810 
    118 H118       26.5776   -1.4376  -10.9484 H         1 UNK         0.0810 
    119 H119       28.0459   -1.2398   -9.9919 H         1 UNK         0.0810 
    120 H120       28.6473    2.0804   -9.5008 H         1 UNK         0.3040 
    121 H121       30.5549    3.0464   -9.0382 H         1 UNK         0.0766 
    122 H122       31.1428    3.0680  -12.0452 H         1 UNK         0.0812 
    123 H123       31.8708    4.1053  -10.8287 H         1 UNK         0.0812 
    124 H124       30.1612    4.2616  -11.1952 H         1 UNK         0.0812 
    125 H125       30.4854    0.2378   -8.7798 H         1 UNK         0.3205 
    126 H126       33.0155   -0.8937   -9.6931 H         1 UNK         0.0754 
    127 H127       32.2874   -2.8489   -8.3306 H         1 UNK         0.0769 
    128 H128       31.0082   -2.3136   -9.4093 H         1 UNK         0.0769 
    129 H129       30.9346   -1.9106   -7.6972 H         1 UNK         0.0769 
    130 H130       31.8408    0.7305   -6.7732 H         1 UNK         0.2981 
    131 H131       34.3910    1.4792   -5.9575 H         1 UNK         0.0541 
    132 H132       32.7084    3.6264   -3.5571 H         1 UNK         0.3459 
    133 H133       34.1848    2.7051   -3.6679 H         1 UNK         0.3459 
    134 H134       34.4688    0.4226   -3.6500 H         1 UNK         0.0612 
    135 H135       34.7911   -0.6677   -4.9514 H         1 UNK         0.0612 
    136 H136       34.2041   -3.0366   -3.7674 H         1 UNK         0.0624 
    137 H137       33.6696   -2.7530   -5.4121 H         1 UNK         0.0624 
@<TRIPOS>BOND
     1    1    2 1    
     2    1   72 1    
     3    1   73 1    
     4    1   74 1    
     5    2    3 2    
     6    2    4 am   BACKBONE|DICT|INTERRES
     7    4    5 1    
     8    4   75 1    
     9    5    6 1    
    10    5   35 1    
    11    5   76 1    
    12    6    7 1    
    13    6   77 1    
    14    6   78 1    
    15    7    8 1    
    16    8    9 1    
    17    8   79 1    
    18    8   80 1    
    19    9   10 ar   
    20    9   14 ar   
    21   10   11 ar   
    22   10   81 1    
    23   11   12 ar   
    24   11   71 1    
    25   12   13 ar   
    26   12   82 1    
    27   13   14 ar   
    28   13   15 1    
    29   14   83 1    
    30   15   16 1    
    31   15   84 1    
    32   15   85 1    
    33   16   17 1    
    34   17   18 1    
    35   17   86 1    
    36   17   87 1    
    37   18   19 1    
    38   18   37 1    
    39   18   88 1    
    40   19   20 am   BACKBONE|DICT|INTERRES
    41   19   89 1    
    42   20   21 2    
    43   20   22 1    
    44   22   23 1    
    45   22   24 1    
    46   22   90 1    
    47   23   91 1    
    48   23   92 1    
    49   23   93 1    
    50   24   25 am   BACKBONE|DICT|INTERRES
    51   24   94 1    
    52   25   26 2    
    53   25   27 1    
    54   27   28 1    
    55   27   29 1    
    56   27   95 1    
    57   28   96 1    
    58   28   97 1    
    59   28   98 1    
    60   29   30 am   BACKBONE|DICT|INTERRES
    61   29   99 1    
    62   30   31 2    
    63   30   32 1    
    64   32   33 1    
    65   32   34 1    
    66   32  100 1    
    67   33  101 1    
    68   33  102 1    
    69   33  103 1    
    70   34   35 am   BACKBONE|DICT|INTERRES
    71   34  104 1    
    72   35   36 2    
    73   37   38 2    
    74   37   39 am   BACKBONE|DICT|INTERRES
    75   39   40 1    
    76   39  105 1    
    77   40   41 1    
    78   40   42 1    
    79   40  106 1    
    80   41  107 1    
    81   41  108 1    
    82   41  109 1    
    83   42   43 2    
    84   42   44 am   BACKBONE|DICT|INTERRES
    85   44   45 1    
    86   44  110 1    
    87   45   46 1    
    88   45   47 1    
    89   45  111 1    
    90   46  112 1    
    91   46  113 1    
    92   46  114 1    
    93   47   48 2    
    94   47   49 am   BACKBONE|DICT|INTERRES
    95   49   50 1    
    96   49  115 1    
    97   50   51 1    
    98   50   52 1    
    99   50  116 1    
   100   51  117 1    
   101   51  118 1    
   102   51  119 1    
   103   52   53 2    
   104   52   54 am   BACKBONE|DICT|INTERRES
   105   54   55 1    
   106   54  120 1    
   107   55   56 1    
   108   55   57 1    
   109   55  121 1    
   110   56  122 1    
   111   56  123 1    
   112   56  124 1    
   113   57   58 2    
   114   57   59 am   BACKBONE|DICT|INTERRES
   115   59   60 1    
   116   59  125 1    
   117   60   61 1    
   118   60   62 1    
   119   60  126 1    
   120   61  127 1    
   121   61  128 1    
   122   61  129 1    
   123   62   63 2    
   124   62   64 am   BACKBONE|DICT|INTERRES
   125   64   65 1    
   126   64  130 1    
   127   65   66 1    
   128   65   69 1    
   129   65  131 1    
   130   66   67 am   BACKBONE|DICT|INTERRES
   131   66   68 2    
   132   67  132 1    
   133   67  133 1    
   134   69   70 1    
   135   69  134 1    
   136   69  135 1    
   137   70   71 1    
   138   71  136 1    
   139   71  137 1    
@<TRIPOS>SUBSTRUCTURE
     1 UNK         1 GROUP             0       ****    0 ROOT    
