@<TRIPOS>MOLECULE
3R137
137   139    1
SMALL
USER_CHARGES


@<TRIPOS>ATOM
      1 CA         28.0979   -5.2191   -2.9506 C.3       0 UNK        -0.2020 
      2 C          27.7102   -4.2078   -1.8836 C.2       0 UNK         0.4855 
      3 O          26.6331   -4.3212   -1.2947 O.2       0 UNK        -0.5197 
      4 N          28.5851   -3.2304   -1.6122 N.am      1 UNK        -0.4892 
      5 CA         28.4860   -2.2619   -0.5105 C.3       1 UNK         0.0835 
      6 C6         29.8734   -1.6868   -0.1044 C.3       12 UNK        -0.0855 
      7 S7         31.1686   -2.9719    0.0652 S.3       12 UNK        -0.2931 
      8 C8         32.4471   -2.4418   -1.1293 C.3       12 UNK         0.0378 
      9 C9         31.8898   -2.1674   -2.5209 C.ar      12 UNK        -0.0802 
     10 C10        31.4899   -3.2199   -3.3508 C.ar      12 UNK        -0.0944 
     11 C11        30.9479   -2.9627   -4.6153 C.ar      12 UNK        -0.0787 
     12 C12        30.7966   -1.6358   -5.0353 C.ar      12 UNK        -0.0862 
     13 C13        31.2234   -0.5776   -4.2292 C.ar      12 UNK        -0.0733 
     14 C14        31.7761   -0.8504   -2.9771 C.ar      12 UNK        -0.0832 
     15 C15        31.0898    0.8603   -4.7106 C.3       12 UNK         0.0240 
     16 S16        29.7742    1.7781   -3.8419 S.3       12 UNK        -0.2522 
     17 C17        28.2956    0.7820   -4.2213 C.3       12 UNK        -0.0967 
     18 CA         27.8142    0.9566   -5.6840 C.3       5 UNK         0.0660 
     19 N          27.2941   -0.2996   -6.2214 N.am      5 UNK        -0.4015 
     20 C          26.8887   -0.5285   -7.4751 C.2       4 UNK         0.4946 
     21 O          26.9162    0.3228   -8.3645 O.2       4 UNK        -0.5353 
     22 CA         26.2883   -1.9173   -7.7772 C.3       4 UNK         0.0277 
     23 CB         27.3879   -2.9492   -8.0929 C.3       4 UNK        -0.1981 
     24 N          25.3710   -2.4103   -6.7341 N.am      4 UNK        -0.4209 
     25 C          25.6658   -2.7516   -5.4712 C.2       3 UNK         0.4942 
     26 O          26.8096   -2.7720   -5.0105 O.2       3 UNK        -0.5208 
     27 CA         24.4799   -3.0601   -4.5459 C.3       3 UNK         0.0250 
     28 CB         24.2826   -4.5770   -4.3995 C.3       3 UNK        -0.1990 
     29 N          24.6792   -2.4658   -3.2219 N.am      3 UNK        -0.4232 
     30 C          24.7935   -1.1492   -2.9822 C.2       2 UNK         0.4993 
     31 O          24.6925   -0.2827   -3.8521 O.2       2 UNK        -0.5286 
     32 CA         25.1097   -0.7335   -1.5402 C.3       2 UNK         0.0209 
     33 CB         23.8684   -0.8736   -0.6438 C.3       2 UNK        -0.1931 
     34 N          26.1964   -1.5591   -1.0147 N.am      2 UNK        -0.4546 
     35 C          27.4560   -1.1532   -0.8289 C.2       1 UNK         0.5154 
     36 O          27.8122    0.0220   -0.9279 O.2       1 UNK        -0.5181 
     37 C          26.8175    2.1238   -5.8352 C.2       5 UNK         0.5014 
     38 O          27.2211    3.2154   -6.2370 O.2       5 UNK        -0.5248 
     39 N          25.5235    1.8627   -5.5914 N.am      6 UNK        -0.4434 
     40 CA         24.4206    2.8039   -5.8221 C.3       6 UNK         0.0363 
     41 CB         23.1217    2.2126   -5.2517 C.3       6 UNK        -0.1936 
     42 C          24.2236    3.2018   -7.2996 C.2       6 UNK         0.5081 
     43 O          23.6605    4.2647   -7.5612 O.2       6 UNK        -0.5248 
     44 N          24.7004    2.3672   -8.2340 N.am      7 UNK        -0.4718 
     45 CA         24.7294    2.6395   -9.6743 C.3       7 UNK         0.0273 
     46 CB         24.3795    1.3460  -10.4325 C.3       7 UNK        -0.1935 
     47 C          26.0903    3.2047  -10.1317 C.2       7 UNK         0.5018 
     48 O          26.2935    3.3652  -11.3359 O.2       7 UNK        -0.5186 
     49 N          26.9918    3.4910   -9.1783 N.am      8 UNK        -0.4240 
     50 CA         28.3524    4.0124   -9.3442 C.3       8 UNK         0.0235 
     51 CB         28.3404    5.4082  -10.0052 C.3       8 UNK        -0.2000 
     52 C          29.3283    3.0338  -10.0271 C.2       8 UNK         0.4941 
     53 O          30.3470    3.4792  -10.5601 O.2       8 UNK        -0.5273 
     54 N          29.0390    1.7258   -9.9815 N.am      9 UNK        -0.4262 
     55 CA         29.9504    0.6764  -10.4333 C.3       9 UNK         0.0264 
     56 CB         29.1385   -0.5013  -10.9938 C.3       9 UNK        -0.1955 
     57 C          30.8249    0.2490   -9.2473 C.2       9 UNK         0.5031 
     58 O          30.2868   -0.1622   -8.2188 O.2       9 UNK        -0.5390 
     59 N          32.1479    0.3811   -9.3944 N.am      10 UNK        -0.4204 
     60 CA         33.1235    0.0402   -8.3598 C.3       10 UNK         0.0237 
     61 CB         34.4091    0.8532   -8.5852 C.3       10 UNK        -0.1985 
     62 C          33.4273   -1.4649   -8.3633 C.2       10 UNK         0.4970 
     63 O          33.6844   -2.0313   -9.4282 O.2       10 UNK        -0.4914 
     64 N          33.4337   -2.0620   -7.1694 N.am      11 UNK        -0.4285 
     65 CA         33.7366   -3.4785   -6.9151 C.3       11 UNK         0.1007 
     66 C          34.2629   -3.7396   -5.4735 C.2       11 UNK         0.5703 
     67 N          34.7316   -2.7289   -4.7489 N.am      11 UNK        -0.7361 
     68 O          34.2818   -4.8763   -5.0074 O.2       11 UNK        -0.4986 
     69 C69        32.6252   -4.4679   -7.3944 C.3       12 UNK        -0.0947 
     70 S70        30.8955   -3.8958   -7.2663 S.3       12 UNK        -0.2240 
     71 C71        30.4973   -4.1215   -5.5013 C.3       12 UNK         0.0194 
     72 H72        27.7847   -6.2190   -2.6516 H         1 UNK         0.0906 
     73 H73        27.6147   -4.9821   -3.8965 H         1 UNK         0.0906 
     74 H74        29.1753   -5.2422   -3.1066 H         1 UNK         0.0906 
     75 H75        29.4370   -3.1612   -2.1529 H         1 UNK         0.3140 
     76 H76        28.1023   -2.7976    0.3610 H         1 UNK         0.1085 
     77 H77        29.7898   -1.1682    0.8523 H         1 UNK         0.0836 
     78 H78        30.2016   -0.9274   -0.8128 H         1 UNK         0.0836 
     79 H79        33.2117   -3.2172   -1.1949 H         1 UNK         0.0731 
     80 H80        32.9482   -1.5562   -0.7354 H         1 UNK         0.0731 
     81 H81        31.5993   -4.2394   -3.0064 H         1 UNK         0.1312 
     82 H82        30.3513   -1.4259   -5.9982 H         1 UNK         0.1406 
     83 H83        32.0935   -0.0299   -2.3476 H         1 UNK         0.1631 
     84 H84        30.9034    0.8919   -5.7842 H         1 UNK         0.0717 
     85 H85        32.0370    1.3789   -4.5563 H         1 UNK         0.0717 
     86 H86        27.5095    1.0357   -3.5069 H         1 UNK         0.0934 
     87 H87        28.5315   -0.2611   -4.0058 H         1 UNK         0.0934 
     88 H88        28.6700    1.1975   -6.3169 H         1 UNK         0.0739 
     89 H89        27.2303   -1.0852   -5.5774 H         1 UNK         0.3093 
     90 H90        25.6817   -1.8022   -8.6769 H         1 UNK         0.0818 
     91 H91        28.0024   -2.6312   -8.9336 H         1 UNK         0.0819 
     92 H92        28.0607   -3.0941   -7.2491 H         1 UNK         0.0819 
     93 H93        26.9619   -3.9183   -8.3513 H         1 UNK         0.0819 
     94 H94        24.3952   -2.4085   -6.9985 H         1 UNK         0.3041 
     95 H95        23.5727   -2.6269   -4.9722 H         1 UNK         0.0784 
     96 H96        24.1310   -5.0482   -5.3716 H         1 UNK         0.0793 
     97 H97        25.1469   -5.0543   -3.9367 H         1 UNK         0.0793 
     98 H98        23.4084   -4.8060   -3.7897 H         1 UNK         0.0793 
     99 H99        24.8292   -3.1143   -2.4630 H         1 UNK         0.3024 
    100 H100       25.4018    0.3192   -1.5575 H         1 UNK         0.1171 
    101 H101       24.0735   -0.5242    0.3683 H         1 UNK         0.0786 
    102 H102       23.0400   -0.2778   -1.0300 H         1 UNK         0.0786 
    103 H103       23.5257   -1.9068   -0.5766 H         1 UNK         0.0786 
    104 H104       26.0435   -2.5634   -0.9694 H         1 UNK         0.2977 
    105 H105       25.2704    0.9633   -5.1862 H         1 UNK         0.3127 
    106 H106       24.6488    3.7189   -5.2715 H         1 UNK         0.0770 
    107 H107       22.8698    1.2629   -5.7252 H         1 UNK         0.0814 
    108 H108       22.2803    2.8895   -5.4061 H         1 UNK         0.0814 
    109 H109       23.2030    2.0403   -4.1783 H         1 UNK         0.0814 
    110 H110       25.2009    1.5371   -7.9387 H         1 UNK         0.2983 
    111 H111       23.9752    3.3887   -9.9246 H         1 UNK         0.0947 
    112 H112       25.1346    0.5730  -10.2889 H         1 UNK         0.0806 
    113 H113       24.3054    1.5296  -11.5051 H         1 UNK         0.0806 
    114 H114       23.4199    0.9431  -10.1085 H         1 UNK         0.0806 
    115 H115       26.7333    3.3058   -8.2146 H         1 UNK         0.3000 
    116 H116       28.7385    4.1413   -8.3321 H         1 UNK         0.0850 
    117 H117       29.3289    5.8676   -9.9682 H         1 UNK         0.0810 
    118 H118       27.6534    6.0833   -9.4949 H         1 UNK         0.0810 
    119 H119       28.0470    5.3583  -11.0541 H         1 UNK         0.0810 
    120 H120       28.2236    1.4117   -9.4616 H         1 UNK         0.3040 
    121 H121       30.5883    1.0504  -11.2372 H         1 UNK         0.0766 
    122 H122       28.5946   -0.2109  -11.8927 H         1 UNK         0.0812 
    123 H123       28.4102   -0.8653  -10.2719 H         1 UNK         0.0812 
    124 H124       29.7880   -1.3367  -11.2586 H         1 UNK         0.0812 
    125 H125       32.5172    0.6941  -10.2806 H         1 UNK         0.3205 
    126 H126       32.7157    0.3211   -7.3864 H         1 UNK         0.0754 
    127 H127       35.1483    0.6367   -7.8127 H         1 UNK         0.0769 
    128 H128       34.2114    1.9249   -8.5516 H         1 UNK         0.0769 
    129 H129       34.8687    0.6264   -9.5483 H         1 UNK         0.0769 
    130 H130       33.1678   -1.5363   -6.3497 H         1 UNK         0.2981 
    131 H131       34.6173   -3.7055   -7.5187 H         1 UNK         0.0541 
    132 H132       35.0709   -2.9200   -3.8201 H         1 UNK         0.3459 
    133 H133       34.8039   -1.7982   -5.1232 H         1 UNK         0.3459 
    134 H134       32.7864   -4.6630   -8.4554 H         1 UNK         0.0612 
    135 H135       32.7097   -5.4471   -6.9212 H         1 UNK         0.0612 
    136 H136       30.9204   -5.0666   -5.1577 H         1 UNK         0.0624 
    137 H137       29.4147   -4.2111   -5.4128 H         1 UNK         0.0624 
@<TRIPOS>BOND
     1    1    2 1    
     2    1   72 1    
     3    1   73 1    
     4    1   74 1    
     5    2    3 2    
     6    2    4 am   BACKBONE|DICT|INTERRES
     7    4    5 1    
     8    4   75 1    
     9    5    6 1    
    10    5   35 1    
    11    5   76 1    
    12    6    7 1    
    13    6   77 1    
    14    6   78 1    
    15    7    8 1    
    16    8    9 1    
    17    8   79 1    
    18    8   80 1    
    19    9   10 ar   
    20    9   14 ar   
    21   10   11 ar   
    22   10   81 1    
    23   11   12 ar   
    24   11   71 1    
    25   12   13 ar   
    26   12   82 1    
    27   13   14 ar   
    28   13   15 1    
    29   14   83 1    
    30   15   16 1    
    31   15   84 1    
    32   15   85 1    
    33   16   17 1    
    34   17   18 1    
    35   17   86 1    
    36   17   87 1    
    37   18   19 1    
    38   18   37 1    
    39   18   88 1    
    40   19   20 am   BACKBONE|DICT|INTERRES
    41   19   89 1    
    42   20   21 2    
    43   20   22 1    
    44   22   23 1    
    45   22   24 1    
    46   22   90 1    
    47   23   91 1    
    48   23   92 1    
    49   23   93 1    
    50   24   25 am   BACKBONE|DICT|INTERRES
    51   24   94 1    
    52   25   26 2    
    53   25   27 1    
    54   27   28 1    
    55   27   29 1    
    56   27   95 1    
    57   28   96 1    
    58   28   97 1    
    59   28   98 1    
    60   29   30 am   BACKBONE|DICT|INTERRES
    61   29   99 1    
    62   30   31 2    
    63   30   32 1    
    64   32   33 1    
    65   32   34 1    
    66   32  100 1    
    67   33  101 1    
    68   33  102 1    
    69   33  103 1    
    70   34   35 am   BACKBONE|DICT|INTERRES
    71   34  104 1    
    72   35   36 2    
    73   37   38 2    
    74   37   39 am   BACKBONE|DICT|INTERRES
    75   39   40 1    
    76   39  105 1    
    77   40   41 1    
    78   40   42 1    
    79   40  106 1    
    80   41  107 1    
    81   41  108 1    
    82   41  109 1    
    83   42   43 2    
    84   42   44 am   BACKBONE|DICT|INTERRES
    85   44   45 1    
    86   44  110 1    
    87   45   46 1    
    88   45   47 1    
    89   45  111 1    
    90   46  112 1    
    91   46  113 1    
    92   46  114 1    
    93   47   48 2    
    94   47   49 am   BACKBONE|DICT|INTERRES
    95   49   50 1    
    96   49  115 1    
    97   50   51 1    
    98   50   52 1    
    99   50  116 1    
   100   51  117 1    
   101   51  118 1    
   102   51  119 1    
   103   52   53 2    
   104   52   54 am   BACKBONE|DICT|INTERRES
   105   54   55 1    
   106   54  120 1    
   107   55   56 1    
   108   55   57 1    
   109   55  121 1    
   110   56  122 1    
   111   56  123 1    
   112   56  124 1    
   113   57   58 2    
   114   57   59 am   BACKBONE|DICT|INTERRES
   115   59   60 1    
   116   59  125 1    
   117   60   61 1    
   118   60   62 1    
   119   60  126 1    
   120   61  127 1    
   121   61  128 1    
   122   61  129 1    
   123   62   63 2    
   124   62   64 am   BACKBONE|DICT|INTERRES
   125   64   65 1    
   126   64  130 1    
   127   65   66 1    
   128   65   69 1    
   129   65  131 1    
   130   66   67 am   BACKBONE|DICT|INTERRES
   131   66   68 2    
   132   67  132 1    
   133   67  133 1    
   134   69   70 1    
   135   69  134 1    
   136   69  135 1    
   137   70   71 1    
   138   71  136 1    
   139   71  137 1    
@<TRIPOS>SUBSTRUCTURE
     1 UNK         1 GROUP             0       ****    0 ROOT    
