@<TRIPOS>MOLECULE
3R137
137   139    1
SMALL
USER_CHARGES


@<TRIPOS>ATOM
      1 CA         27.0199   -3.7832    2.7014 C.3       0 UNK        -0.2020 
      2 C          27.5150   -3.4531    1.3015 C.2       0 UNK         0.4855 
      3 O          28.4080   -2.6197    1.1484 O.2       0 UNK        -0.5197 
      4 N          26.9392   -4.0959    0.2753 N.am      1 UNK        -0.4892 
      5 CA         27.2930   -3.8978   -1.1391 C.3       1 UNK         0.0835 
      6 C6         27.0175   -5.1795   -1.9659 C.3       12 UNK        -0.0855 
      7 S7         28.0657   -5.4478   -3.4417 S.3       12 UNK        -0.2931 
      8 C8         29.7820   -5.1060   -2.9100 C.3       12 UNK         0.0378 
      9 C9         30.2760   -3.7587   -3.4286 C.ar      12 UNK        -0.0802 
     10 C10        30.5377   -3.6040   -4.7929 C.ar      12 UNK        -0.0944 
     11 C11        30.9858   -2.3825   -5.2998 C.ar      12 UNK        -0.0787 
     12 C12        31.1821   -1.3086   -4.4302 C.ar      12 UNK        -0.0862 
     13 C13        30.9152   -1.4384   -3.0638 C.ar      12 UNK        -0.0733 
     14 C14        30.4826   -2.6738   -2.5673 C.ar      12 UNK        -0.0832 
     15 C15        31.0953   -0.2558   -2.1129 C.3       12 UNK         0.0240 
     16 S16        30.4245    1.3253   -2.7457 S.3       12 UNK        -0.2522 
     17 C17        28.6908    0.8926   -3.1141 C.3       12 UNK        -0.0967 
     18 CA         28.4199    0.8540   -4.6450 C.3       5 UNK         0.0660 
     19 N          27.6631   -0.3327   -5.0439 N.am      5 UNK        -0.4015 
     20 C          27.5016   -0.7508   -6.3077 C.2       4 UNK         0.4946 
     21 O          28.0313   -0.2230   -7.2877 O.2       4 UNK        -0.5353 
     22 CA         26.5610   -1.9467   -6.5188 C.3       4 UNK         0.0277 
     23 CB         27.3262   -3.2681   -6.3805 C.3       4 UNK        -0.1981 
     24 N          25.4345   -1.9382   -5.5830 N.am      4 UNK        -0.4209 
     25 C          24.4161   -1.0691   -5.6389 C.2       3 UNK         0.4942 
     26 O          24.3102   -0.1902   -6.4938 O.2       3 UNK        -0.5208 
     27 CA         23.3591   -1.1745   -4.5272 C.3       3 UNK         0.0250 
     28 CB         22.4140   -2.3603   -4.7799 C.3       3 UNK        -0.1990 
     29 N          23.9449   -1.2835   -3.1879 N.am      3 UNK        -0.4232 
     30 C          24.6992   -0.3341   -2.6176 C.2       2 UNK         0.4993 
     31 O          24.9953    0.7271   -3.1619 O.2       2 UNK        -0.5286 
     32 CA         25.2512   -0.6201   -1.2155 C.3       2 UNK         0.0209 
     33 CB         24.2018   -0.2849   -0.1434 C.3       2 UNK        -0.1931 
     34 N          25.7509   -1.9815   -1.0018 N.am      2 UNK        -0.4546 
     35 C          26.6648   -2.6215   -1.7487 C.2       1 UNK         0.5154 
     36 O          27.0405   -2.2197   -2.8511 O.2       1 UNK        -0.5181 
     37 C          27.7598    2.1508   -5.1581 C.2       5 UNK         0.5014 
     38 O          28.4475    2.9873   -5.7434 O.2       5 UNK        -0.5248 
     39 N          26.4369    2.2816   -4.9702 N.am      6 UNK        -0.4434 
     40 CA         25.6272    3.4061   -5.4512 C.3       6 UNK         0.0363 
     41 CB         24.2144    3.3252   -4.8519 C.3       6 UNK        -0.1936 
     42 C          25.5545    3.4845   -6.9843 C.2       6 UNK         0.5081 
     43 O          25.5992    4.5851   -7.5345 O.2       6 UNK        -0.5248 
     44 N          25.4737    2.3230   -7.6492 N.am      7 UNK        -0.4718 
     45 CA         25.5431    2.1996   -9.1089 C.3       7 UNK         0.0273 
     46 CB         25.0737    0.7938   -9.5176 C.3       7 UNK        -0.1935 
     47 C          26.9463    2.4742   -9.6826 C.2       7 UNK         0.5018 
     48 O          27.0572    2.7213  -10.8840 O.2       7 UNK        -0.5186 
     49 N          27.9773    2.4060   -8.8257 N.am      8 UNK        -0.4240 
     50 CA         29.4086    2.5015   -9.1243 C.3       8 UNK         0.0235 
     51 CB         29.7841    3.9247   -9.5870 C.3       8 UNK        -0.2000 
     52 C          29.8562    1.4034  -10.1053 C.2       8 UNK         0.4941 
     53 O          30.5186    1.6935  -11.1050 O.2       8 UNK        -0.5273 
     54 N          29.4528    0.1570   -9.8207 N.am      9 UNK        -0.4262 
     55 CA         29.6123   -1.0174  -10.6851 C.3       9 UNK         0.0264 
     56 CB         28.6190   -2.0994  -10.2220 C.3       9 UNK        -0.1955 
     57 C          31.0654   -1.5340  -10.7578 C.2       9 UNK         0.5031 
     58 O          31.3288   -2.6763  -10.3822 O.2       9 UNK        -0.5390 
     59 N          31.9752   -0.6729  -11.2363 N.am      10 UNK        -0.4204 
     60 CA         33.4325   -0.8486  -11.3452 C.3       10 UNK         0.0237 
     61 CB         33.7938   -2.0371  -12.2624 C.3       10 UNK        -0.1985 
     62 C          34.1515   -0.9041   -9.9802 C.2       10 UNK         0.4970 
     63 O          35.2659   -1.4228   -9.8931 O.2       10 UNK        -0.4914 
     64 N          33.5141   -0.3416   -8.9502 N.am      11 UNK        -0.4285 
     65 CA         33.9763   -0.2486   -7.5625 C.3       11 UNK         0.1007 
     66 C          33.1815    0.8489   -6.8093 C.2       11 UNK         0.5703 
     67 N          33.6479    1.2654   -5.6402 N.am      11 UNK        -0.7361 
     68 O          32.1444    1.3224   -7.2694 O.2       11 UNK        -0.4986 
     69 C69        34.0250   -1.6138   -6.7988 C.3       12 UNK        -0.0947 
     70 S70        32.8267   -2.9008   -7.3034 S.3       12 UNK        -0.2240 
     71 C71        31.2213   -2.2209   -6.7915 C.3       12 UNK         0.0194 
     72 H72        26.2312   -4.5353    2.6899 H         1 UNK         0.0906 
     73 H73        27.8409   -4.1629    3.3090 H         1 UNK         0.0906 
     74 H74        26.6273   -2.8871    3.1816 H         1 UNK         0.0906 
     75 H75        26.2116   -4.7739    0.4591 H         1 UNK         0.3140 
     76 H76        28.3609   -3.7122   -1.1509 H         1 UNK         0.1085 
     77 H77        27.1710   -6.0591   -1.3381 H         1 UNK         0.0836 
     78 H78        25.9702   -5.2247   -2.2706 H         1 UNK         0.0836 
     79 H79        30.4239   -5.8878   -3.3187 H         1 UNK         0.0731 
     80 H80        29.8821   -5.1871   -1.8272 H         1 UNK         0.0731 
     81 H81        30.3786   -4.4359   -5.4656 H         1 UNK         0.1312 
     82 H82        31.5200   -0.3600   -4.8192 H         1 UNK         0.1406 
     83 H83        30.3060   -2.7820   -1.5067 H         1 UNK         0.1631 
     84 H84        32.1598   -0.1284   -1.9131 H         1 UNK         0.0717 
     85 H85        30.6234   -0.4641   -1.1512 H         1 UNK         0.0717 
     86 H86        28.4824   -0.0741   -2.6560 H         1 UNK         0.0934 
     87 H87        28.0335    1.5935   -2.5952 H         1 UNK         0.0934 
     88 H88        29.3743    0.7740   -5.1698 H         1 UNK         0.0739 
     89 H89        27.2503   -0.8846   -4.2975 H         1 UNK         0.3093 
     90 H90        26.1635   -1.8859   -7.5341 H         1 UNK         0.0818 
     91 H91        27.7752   -3.3576   -5.3922 H         1 UNK         0.0819 
     92 H92        26.6750   -4.1285   -6.5345 H         1 UNK         0.0819 
     93 H93        28.1313   -3.3358   -7.1111 H         1 UNK         0.0819 
     94 H94        25.4811   -2.5845   -4.8075 H         1 UNK         0.3041 
     95 H95        22.7663   -0.2575   -4.5538 H         1 UNK         0.0784 
     96 H96        21.9599   -2.2919   -5.7696 H         1 UNK         0.0793 
     97 H97        22.9362   -3.3164   -4.7263 H         1 UNK         0.0793 
     98 H98        21.6010   -2.3806   -4.0539 H         1 UNK         0.0793 
     99 H99        23.7649   -2.1305   -2.6688 H         1 UNK         0.3024 
    100 H100       26.1017    0.0504   -1.0734 H         1 UNK         0.1171 
    101 H101       23.8238    0.7309   -0.2703 H         1 UNK         0.0786 
    102 H102       24.6247   -0.3462    0.8596 H         1 UNK         0.0786 
    103 H103       23.3460   -0.9595   -0.1895 H         1 UNK         0.0786 
    104 H104       25.5106   -2.4087   -0.1193 H         1 UNK         0.2977 
    105 H105       25.9401    1.5752   -4.4266 H         1 UNK         0.3127 
    106 H106       26.0953    4.3265   -5.0959 H         1 UNK         0.0770 
    107 H107       23.7089    2.4015   -5.1374 H         1 UNK         0.0814 
    108 H108       23.5958    4.1567   -5.1921 H         1 UNK         0.0814 
    109 H109       24.2432    3.3670   -3.7630 H         1 UNK         0.0814 
    110 H110       25.3564    1.4618   -7.1235 H         1 UNK         0.2983 
    111 H111       24.8617    2.9317   -9.5477 H         1 UNK         0.0947 
    112 H112       25.0829    0.6765  -10.6021 H         1 UNK         0.0806 
    113 H113       24.0554    0.6009   -9.1797 H         1 UNK         0.0806 
    114 H114       25.7182    0.0194   -9.1002 H         1 UNK         0.0806 
    115 H115       27.7603    2.1744   -7.8644 H         1 UNK         0.3000 
    116 H116       29.9246    2.3112   -8.1829 H         1 UNK         0.0850 
    117 H117       30.8642    4.0225   -9.7019 H         1 UNK         0.0810 
    118 H118       29.4661    4.6722   -8.8602 H         1 UNK         0.0810 
    119 H119       29.3306    4.1738  -10.5469 H         1 UNK         0.0810 
    120 H120       28.9371    0.0125   -8.9537 H         1 UNK         0.3040 
    121 H121       29.3296   -0.7283  -11.6996 H         1 UNK         0.0766 
    122 H122       27.5925   -1.7331  -10.2442 H         1 UNK         0.0812 
    123 H123       28.8341   -2.4290   -9.2059 H         1 UNK         0.0812 
    124 H124       28.6644   -2.9772  -10.8679 H         1 UNK         0.0812 
    125 H125       31.6238    0.2584  -11.4599 H         1 UNK         0.3205 
    126 H126       33.7998    0.0563  -11.8313 H         1 UNK         0.0754 
    127 H127       34.8628   -2.0539  -12.4779 H         1 UNK         0.0769 
    128 H128       33.2734   -1.9743  -13.2180 H         1 UNK         0.0769 
    129 H129       33.5426   -2.9942  -11.8043 H         1 UNK         0.0769 
    130 H130       32.6161    0.0948   -9.1067 H         1 UNK         0.2981 
    131 H131       34.9964    0.1371   -7.6126 H         1 UNK         0.0541 
    132 H132       33.1418    1.9804   -5.1422 H         1 UNK         0.3459 
    133 H133       34.5009    0.8939   -5.2530 H         1 UNK         0.3459 
    134 H134       35.0101   -2.0532   -6.9605 H         1 UNK         0.0612 
    135 H135       33.9552   -1.4805   -5.7180 H         1 UNK         0.0612 
    136 H136       30.4427   -2.7538   -7.3370 H         1 UNK         0.0624 
    137 H137       31.1295   -1.1790   -7.0963 H         1 UNK         0.0624 
@<TRIPOS>BOND
     1    1    2 1    
     2    1   72 1    
     3    1   73 1    
     4    1   74 1    
     5    2    3 2    
     6    2    4 am   BACKBONE|DICT|INTERRES
     7    4    5 1    
     8    4   75 1    
     9    5    6 1    
    10    5   35 1    
    11    5   76 1    
    12    6    7 1    
    13    6   77 1    
    14    6   78 1    
    15    7    8 1    
    16    8    9 1    
    17    8   79 1    
    18    8   80 1    
    19    9   10 ar   
    20    9   14 ar   
    21   10   11 ar   
    22   10   81 1    
    23   11   12 ar   
    24   11   71 1    
    25   12   13 ar   
    26   12   82 1    
    27   13   14 ar   
    28   13   15 1    
    29   14   83 1    
    30   15   16 1    
    31   15   84 1    
    32   15   85 1    
    33   16   17 1    
    34   17   18 1    
    35   17   86 1    
    36   17   87 1    
    37   18   19 1    
    38   18   37 1    
    39   18   88 1    
    40   19   20 am   BACKBONE|DICT|INTERRES
    41   19   89 1    
    42   20   21 2    
    43   20   22 1    
    44   22   23 1    
    45   22   24 1    
    46   22   90 1    
    47   23   91 1    
    48   23   92 1    
    49   23   93 1    
    50   24   25 am   BACKBONE|DICT|INTERRES
    51   24   94 1    
    52   25   26 2    
    53   25   27 1    
    54   27   28 1    
    55   27   29 1    
    56   27   95 1    
    57   28   96 1    
    58   28   97 1    
    59   28   98 1    
    60   29   30 am   BACKBONE|DICT|INTERRES
    61   29   99 1    
    62   30   31 2    
    63   30   32 1    
    64   32   33 1    
    65   32   34 1    
    66   32  100 1    
    67   33  101 1    
    68   33  102 1    
    69   33  103 1    
    70   34   35 am   BACKBONE|DICT|INTERRES
    71   34  104 1    
    72   35   36 2    
    73   37   38 2    
    74   37   39 am   BACKBONE|DICT|INTERRES
    75   39   40 1    
    76   39  105 1    
    77   40   41 1    
    78   40   42 1    
    79   40  106 1    
    80   41  107 1    
    81   41  108 1    
    82   41  109 1    
    83   42   43 2    
    84   42   44 am   BACKBONE|DICT|INTERRES
    85   44   45 1    
    86   44  110 1    
    87   45   46 1    
    88   45   47 1    
    89   45  111 1    
    90   46  112 1    
    91   46  113 1    
    92   46  114 1    
    93   47   48 2    
    94   47   49 am   BACKBONE|DICT|INTERRES
    95   49   50 1    
    96   49  115 1    
    97   50   51 1    
    98   50   52 1    
    99   50  116 1    
   100   51  117 1    
   101   51  118 1    
   102   51  119 1    
   103   52   53 2    
   104   52   54 am   BACKBONE|DICT|INTERRES
   105   54   55 1    
   106   54  120 1    
   107   55   56 1    
   108   55   57 1    
   109   55  121 1    
   110   56  122 1    
   111   56  123 1    
   112   56  124 1    
   113   57   58 2    
   114   57   59 am   BACKBONE|DICT|INTERRES
   115   59   60 1    
   116   59  125 1    
   117   60   61 1    
   118   60   62 1    
   119   60  126 1    
   120   61  127 1    
   121   61  128 1    
   122   61  129 1    
   123   62   63 2    
   124   62   64 am   BACKBONE|DICT|INTERRES
   125   64   65 1    
   126   64  130 1    
   127   65   66 1    
   128   65   69 1    
   129   65  131 1    
   130   66   67 am   BACKBONE|DICT|INTERRES
   131   66   68 2    
   132   67  132 1    
   133   67  133 1    
   134   69   70 1    
   135   69  134 1    
   136   69  135 1    
   137   70   71 1    
   138   71  136 1    
   139   71  137 1    
@<TRIPOS>SUBSTRUCTURE
     1 UNK         1 GROUP             0       ****    0 ROOT    
