@<TRIPOS>MOLECULE
3R137
137   139    1
SMALL
USER_CHARGES


@<TRIPOS>ATOM
      1 CA         25.4653   -5.8951   -5.6811 C.3       0 UNK        -0.2020 
      2 C          25.6626   -5.3466   -4.2766 C.2       0 UNK         0.4855 
      3 O          24.7087   -4.8540   -3.6732 O.2       0 UNK        -0.5197 
      4 N          26.8928   -5.4168   -3.7491 N.am      1 UNK        -0.4892 
      5 CA         27.2594   -4.8944   -2.4287 C.3       1 UNK         0.0835 
      6 C6         28.6817   -5.3357   -2.0132 C.3       12 UNK        -0.0855 
      7 S7         28.9591   -5.1005   -0.2241 S.3       12 UNK        -0.2931 
      8 C8         30.7483   -4.7627   -0.1556 C.3       12 UNK         0.0378 
      9 C9         31.1640   -3.5230   -0.9401 C.ar      12 UNK        -0.0802 
     10 C10        32.1526   -3.6241   -1.9239 C.ar      12 UNK        -0.0944 
     11 C11        32.5765   -2.4926   -2.6257 C.ar      12 UNK        -0.0787 
     12 C12        32.0181   -1.2492   -2.3234 C.ar      12 UNK        -0.0862 
     13 C13        31.0045   -1.1353   -1.3668 C.ar      12 UNK        -0.0733 
     14 C14        30.5866   -2.2760   -0.6728 C.ar      12 UNK        -0.0832 
     15 C15        30.3779    0.2207   -1.0662 C.3       12 UNK         0.0240 
     16 S16        28.9715    0.5926   -2.1654 S.3       12 UNK        -0.2522 
     17 C17        29.8310    1.1336   -3.6781 C.3       12 UNK        -0.0967 
     18 CA         28.9677    1.1590   -4.9572 C.3       5 UNK         0.0660 
     19 N          28.2939   -0.1123   -5.2413 N.am      5 UNK        -0.4015 
     20 C          28.0062   -0.5198   -6.4854 C.2       4 UNK         0.4946 
     21 O          28.3293    0.1008   -7.4985 O.2       4 UNK        -0.5353 
     22 CA         27.1899   -1.8104   -6.6376 C.3       4 UNK         0.0277 
     23 CB         28.0786   -3.0585   -6.5115 C.3       4 UNK        -0.1981 
     24 N          26.0871   -1.8756   -5.6797 N.am      4 UNK        -0.4209 
     25 C          24.9813   -1.1201   -5.7595 C.2       3 UNK         0.4942 
     26 O          24.7896   -0.2869   -6.6443 O.2       3 UNK        -0.5208 
     27 CA         23.9190   -1.2998   -4.6618 C.3       3 UNK         0.0250 
     28 CB         22.8611   -2.3254   -5.0974 C.3       3 UNK        -0.1990 
     29 N          24.4933   -1.6899   -3.3726 N.am      3 UNK        -0.4232 
     30 C          25.2474   -0.8750   -2.6185 C.2       2 UNK         0.4993 
     31 O          25.5008    0.2890   -2.9241 O.2       2 UNK        -0.5286 
     32 CA         25.8659   -1.4675   -1.3398 C.3       2 UNK         0.0209 
     33 CB         24.9090   -1.2989   -0.1494 C.3       2 UNK        -0.1931 
     34 N          26.2448   -2.8775   -1.4682 N.am      2 UNK        -0.4546 
     35 C          27.0883   -3.3619   -2.3907 C.2       1 UNK         0.5154 
     36 O          27.6671   -2.6632   -3.2260 O.2       1 UNK        -0.5181 
     37 C          28.0272    2.3775   -5.0411 C.2       5 UNK         0.5014 
     38 O          28.5155    3.4714   -5.3267 O.2       5 UNK        -0.5248 
     39 N          26.7089    2.1880   -4.8637 N.am      6 UNK        -0.4434 
     40 CA         25.6967    3.2027   -5.1824 C.3       6 UNK         0.0363 
     41 CB         24.3249    2.7923   -4.6269 C.3       6 UNK        -0.1936 
     42 C          25.6092    3.4779   -6.6946 C.2       6 UNK         0.5081 
     43 O          25.4990    4.6389   -7.0893 O.2       6 UNK        -0.5248 
     44 N          25.6938    2.4171   -7.5135 N.am      7 UNK        -0.4718 
     45 CA         25.8180    2.5076   -8.9723 C.3       7 UNK         0.0273 
     46 CB         25.5843    1.1235   -9.5988 C.3       7 UNK        -0.1935 
     47 C          27.1761    3.0793   -9.4176 C.2       7 UNK         0.5018 
     48 O          27.2411    3.7359  -10.4567 O.2       7 UNK        -0.5186 
     49 N          28.2309    2.8090   -8.6340 N.am      8 UNK        -0.4240 
     50 CA         29.6134    3.3072   -8.7132 C.3       8 UNK         0.0235 
     51 CB         29.6590    4.8443   -8.6182 C.3       8 UNK        -0.2000 
     52 C          30.4295    2.8008   -9.9154 C.2       8 UNK         0.4941 
     53 O          31.6489    2.6800   -9.8004 O.2       8 UNK        -0.5273 
     54 N          29.7621    2.4857  -11.0320 N.am      9 UNK        -0.4262 
     55 CA         30.3470    1.8759  -12.2291 C.3       9 UNK         0.0264 
     56 CB         29.3318    1.9667  -13.3802 C.3       9 UNK        -0.1955 
     57 C          30.7942    0.4161  -12.0183 C.2       9 UNK         0.5031 
     58 O          31.6120   -0.0757  -12.7978 O.2       9 UNK        -0.5390 
     59 N          30.2450   -0.2464  -10.9909 N.am      10 UNK        -0.4204 
     60 CA         30.5977   -1.5979  -10.5679 C.3       10 UNK         0.0237 
     61 CB         29.3253   -2.3222  -10.0851 C.3       10 UNK        -0.1985 
     62 C          31.7322   -1.5360   -9.5281 C.2       10 UNK         0.4970 
     63 O          32.8804   -1.3117   -9.9135 O.2       10 UNK        -0.4914 
     64 N          31.4143   -1.7623   -8.2464 N.am      11 UNK        -0.4285 
     65 CA         32.3836   -1.7661   -7.1403 C.3       11 UNK         0.1007 
     66 C          32.8552   -0.3342   -6.7720 C.2       11 UNK         0.5703 
     67 N          34.1478   -0.1387   -6.5500 N.am      11 UNK        -0.7361 
     68 O          32.0522    0.5865   -6.6441 O.2       11 UNK        -0.4986 
     69 C69        31.8354   -2.5294   -5.9005 C.3       12 UNK        -0.0947 
     70 S70        33.1041   -3.5909   -5.1291 S.3       12 UNK        -0.2240 
     71 C71        33.6519   -2.6080   -3.6965 C.3       12 UNK         0.0194 
     72 H72        24.7025   -6.6732   -5.6748 H         1 UNK         0.0906 
     73 H73        25.1353   -5.1009   -6.3504 H         1 UNK         0.0906 
     74 H74        26.3822   -6.3231   -6.0857 H         1 UNK         0.0906 
     75 H75        27.6480   -5.8091   -4.2929 H         1 UNK         0.3140 
     76 H76        26.5552   -5.3376   -1.7204 H         1 UNK         0.1085 
     77 H77        29.4361   -4.8066   -2.5987 H         1 UNK         0.0836 
     78 H78        28.8237   -6.3966   -2.2255 H         1 UNK         0.0836 
     79 H79        31.2813   -5.6457   -0.5120 H         1 UNK         0.0731 
     80 H80        31.0399   -4.6305    0.8871 H         1 UNK         0.0731 
     81 H81        32.5993   -4.5838   -2.1462 H         1 UNK         0.1312 
     82 H82        32.3745   -0.3695   -2.8397 H         1 UNK         0.1406 
     83 H83        29.8125   -2.1955    0.0784 H         1 UNK         0.1631 
     84 H84        31.1256    1.0113   -1.1455 H         1 UNK         0.0717 
     85 H85        30.0253    0.2428   -0.0340 H         1 UNK         0.0717 
     86 H86        30.2868    2.1091   -3.4971 H         1 UNK         0.0934 
     87 H87        30.6590    0.4569   -3.8706 H         1 UNK         0.0934 
     88 H88        29.6816    1.3218   -5.7674 H         1 UNK         0.0739 
     89 H89        28.0236   -0.6797   -4.4459 H         1 UNK         0.3093 
     90 H90        26.7590   -1.8102   -7.6416 H         1 UNK         0.0818 
     91 H91        28.5900   -3.1070   -5.5506 H         1 UNK         0.0819 
     92 H92        28.8457   -3.0731   -7.2830 H         1 UNK         0.0819 
     93 H93        27.4974   -3.9718   -6.6294 H         1 UNK         0.0819 
     94 H94        26.2215   -2.4658   -4.8685 H         1 UNK         0.3041 
     95 H95        23.4153   -0.3412   -4.5258 H         1 UNK         0.0784 
     96 H96        22.3655   -2.0039   -6.0146 H         1 UNK         0.0793 
     97 H97        23.2984   -3.3043   -5.2936 H         1 UNK         0.0793 
     98 H98        22.0884   -2.4479   -4.3383 H         1 UNK         0.0793 
     99 H99        24.3683   -2.6536   -3.0857 H         1 UNK         0.3024 
    100 H100       26.7752   -0.9045   -1.1268 H         1 UNK         0.1171 
    101 H101       25.3725   -1.6248    0.7821 H         1 UNK         0.0786 
    102 H102       24.6296   -0.2521   -0.0205 H         1 UNK         0.0786 
    103 H103       23.9885   -1.8679   -0.2857 H         1 UNK         0.0786 
    104 H104       25.8025   -3.5223   -0.8290 H         1 UNK         0.2977 
    105 H105       26.3732    1.3001   -4.5051 H         1 UNK         0.3127 
    106 H106       25.9907    4.1334   -4.6923 H         1 UNK         0.0770 
    107 H107       23.9667    1.8688   -5.0797 H         1 UNK         0.0814 
    108 H108       23.5789    3.5623   -4.8276 H         1 UNK         0.0814 
    109 H109       24.3589    2.6501   -3.5468 H         1 UNK         0.0814 
    110 H110       25.6849    1.4837   -7.1140 H         1 UNK         0.2983 
    111 H111       25.0421    3.1841   -9.3374 H         1 UNK         0.0947 
    112 H112       25.6468    1.1708  -10.6868 H         1 UNK         0.0806 
    113 H113       24.5959    0.7381   -9.3475 H         1 UNK         0.0806 
    114 H114       26.3206    0.3943   -9.2604 H         1 UNK         0.0806 
    115 H115       28.0721    2.1360   -7.8921 H         1 UNK         0.3000 
    116 H116       30.1097    2.9106   -7.8255 H         1 UNK         0.0850 
    117 H117       30.6887    5.2001   -8.5643 H         1 UNK         0.0810 
    118 H118       29.1464    5.1981   -7.7232 H         1 UNK         0.0810 
    119 H119       29.1960    5.3215   -9.4823 H         1 UNK         0.0810 
    120 H120       28.7720    2.7118  -11.0570 H         1 UNK         0.3040 
    121 H121       31.2326    2.4527  -12.5040 H         1 UNK         0.0766 
    122 H122       29.0607    3.0016  -13.5900 H         1 UNK         0.0812 
    123 H123       28.4160    1.4185  -13.1550 H         1 UNK         0.0812 
    124 H124       29.7448    1.5487  -14.2995 H         1 UNK         0.0812 
    125 H125       29.6083    0.2607  -10.3932 H         1 UNK         0.3205 
    126 H126       30.9851   -2.1598  -11.4207 H         1 UNK         0.0754 
    127 H127       29.5558   -3.3143   -9.6942 H         1 UNK         0.0769 
    128 H128       28.6265   -2.4630  -10.9101 H         1 UNK         0.0769 
    129 H129       28.8002   -1.7630   -9.3125 H         1 UNK         0.0769 
    130 H130       30.4439   -1.8632   -7.9965 H         1 UNK         0.2981 
    131 H131       33.2526   -2.3118   -7.5149 H         1 UNK         0.0541 
    132 H132       34.8130   -0.8896   -6.6466 H         1 UNK         0.3459 
    133 H133       34.4655    0.7842   -6.2998 H         1 UNK         0.3459 
    134 H134       31.3837   -1.8623   -5.1635 H         1 UNK         0.0612 
    135 H135       31.0377   -3.2100   -6.1982 H         1 UNK         0.0612 
    136 H136       33.9744   -1.6237   -4.0385 H         1 UNK         0.0624 
    137 H137       34.5321   -3.0844   -3.2629 H         1 UNK         0.0624 
@<TRIPOS>BOND
     1    1    2 1    
     2    1   72 1    
     3    1   73 1    
     4    1   74 1    
     5    2    3 2    
     6    2    4 am   BACKBONE|DICT|INTERRES
     7    4    5 1    
     8    4   75 1    
     9    5    6 1    
    10    5   35 1    
    11    5   76 1    
    12    6    7 1    
    13    6   77 1    
    14    6   78 1    
    15    7    8 1    
    16    8    9 1    
    17    8   79 1    
    18    8   80 1    
    19    9   10 ar   
    20    9   14 ar   
    21   10   11 ar   
    22   10   81 1    
    23   11   12 ar   
    24   11   71 1    
    25   12   13 ar   
    26   12   82 1    
    27   13   14 ar   
    28   13   15 1    
    29   14   83 1    
    30   15   16 1    
    31   15   84 1    
    32   15   85 1    
    33   16   17 1    
    34   17   18 1    
    35   17   86 1    
    36   17   87 1    
    37   18   19 1    
    38   18   37 1    
    39   18   88 1    
    40   19   20 am   BACKBONE|DICT|INTERRES
    41   19   89 1    
    42   20   21 2    
    43   20   22 1    
    44   22   23 1    
    45   22   24 1    
    46   22   90 1    
    47   23   91 1    
    48   23   92 1    
    49   23   93 1    
    50   24   25 am   BACKBONE|DICT|INTERRES
    51   24   94 1    
    52   25   26 2    
    53   25   27 1    
    54   27   28 1    
    55   27   29 1    
    56   27   95 1    
    57   28   96 1    
    58   28   97 1    
    59   28   98 1    
    60   29   30 am   BACKBONE|DICT|INTERRES
    61   29   99 1    
    62   30   31 2    
    63   30   32 1    
    64   32   33 1    
    65   32   34 1    
    66   32  100 1    
    67   33  101 1    
    68   33  102 1    
    69   33  103 1    
    70   34   35 am   BACKBONE|DICT|INTERRES
    71   34  104 1    
    72   35   36 2    
    73   37   38 2    
    74   37   39 am   BACKBONE|DICT|INTERRES
    75   39   40 1    
    76   39  105 1    
    77   40   41 1    
    78   40   42 1    
    79   40  106 1    
    80   41  107 1    
    81   41  108 1    
    82   41  109 1    
    83   42   43 2    
    84   42   44 am   BACKBONE|DICT|INTERRES
    85   44   45 1    
    86   44  110 1    
    87   45   46 1    
    88   45   47 1    
    89   45  111 1    
    90   46  112 1    
    91   46  113 1    
    92   46  114 1    
    93   47   48 2    
    94   47   49 am   BACKBONE|DICT|INTERRES
    95   49   50 1    
    96   49  115 1    
    97   50   51 1    
    98   50   52 1    
    99   50  116 1    
   100   51  117 1    
   101   51  118 1    
   102   51  119 1    
   103   52   53 2    
   104   52   54 am   BACKBONE|DICT|INTERRES
   105   54   55 1    
   106   54  120 1    
   107   55   56 1    
   108   55   57 1    
   109   55  121 1    
   110   56  122 1    
   111   56  123 1    
   112   56  124 1    
   113   57   58 2    
   114   57   59 am   BACKBONE|DICT|INTERRES
   115   59   60 1    
   116   59  125 1    
   117   60   61 1    
   118   60   62 1    
   119   60  126 1    
   120   61  127 1    
   121   61  128 1    
   122   61  129 1    
   123   62   63 2    
   124   62   64 am   BACKBONE|DICT|INTERRES
   125   64   65 1    
   126   64  130 1    
   127   65   66 1    
   128   65   69 1    
   129   65  131 1    
   130   66   67 am   BACKBONE|DICT|INTERRES
   131   66   68 2    
   132   67  132 1    
   133   67  133 1    
   134   69   70 1    
   135   69  134 1    
   136   69  135 1    
   137   70   71 1    
   138   71  136 1    
   139   71  137 1    
@<TRIPOS>SUBSTRUCTURE
     1 UNK         1 GROUP             0       ****    0 ROOT    
