@<TRIPOS>MOLECULE
3R137
137   139    1
SMALL
USER_CHARGES


@<TRIPOS>ATOM
      1 CA         30.6480   -5.4389   -5.1774 C.3       0 UNK        -0.2020 
      2 C          29.3169   -5.6201   -4.4655 C.2       0 UNK         0.4855 
      3 O          28.7123   -6.6884   -4.5620 O.2       0 UNK        -0.5197 
      4 N          28.8570   -4.5886   -3.7512 N.am      1 UNK        -0.4892 
      5 CA         27.5901   -4.5702   -3.0227 C.3       1 UNK         0.0835 
      6 C6         27.6617   -5.3325   -1.6628 C.3       12 UNK        -0.0855 
      7 S7         28.3097   -4.4343   -0.2048 S.3       12 UNK        -0.2931 
      8 C8         30.1147   -4.4558   -0.4708 C.3       12 UNK         0.0378 
      9 C9         30.6473   -3.2739   -1.2817 C.ar      12 UNK        -0.0802 
     10 C10        31.7627   -3.4598   -2.1036 C.ar      12 UNK        -0.0944 
     11 C11        32.3141   -2.3985   -2.8287 C.ar      12 UNK        -0.0787 
     12 C12        31.7211   -1.1318   -2.7306 C.ar      12 UNK        -0.0862 
     13 C13        30.6120   -0.9231   -1.9048 C.ar      12 UNK        -0.0733 
     14 C14        30.0839   -1.9955   -1.1813 C.ar      12 UNK        -0.0832 
     15 C15        30.0093    0.4690   -1.7542 C.3       12 UNK         0.0240 
     16 S16        28.5584    0.7259   -2.8240 S.3       12 UNK        -0.2522 
     17 C17        29.3547    0.9355   -4.4460 C.3       12 UNK        -0.0967 
     18 CA         28.3929    1.0227   -5.6545 C.3       5 UNK         0.0660 
     19 N          27.6062   -0.1951   -5.8825 N.am      5 UNK        -0.4015 
     20 C          27.0377   -0.4692   -7.0672 C.2       4 UNK         0.4946 
     21 O          27.1310    0.2671   -8.0497 O.2       4 UNK        -0.5353 
     22 CA         26.1940   -1.7453   -7.1805 C.3       4 UNK         0.0277 
     23 CB         27.0709   -3.0063   -7.2504 C.3       4 UNK        -0.1981 
     24 N          25.2293   -1.8567   -6.0893 N.am      4 UNK        -0.4209 
     25 C          24.1216   -1.1084   -5.9837 C.2       3 UNK         0.4942 
     26 O          23.7848   -0.2612   -6.8091 O.2       3 UNK        -0.5208 
     27 CA         23.2446   -1.3304   -4.7400 C.3       3 UNK         0.0250 
     28 CB         22.1868   -2.4118   -5.0118 C.3       3 UNK        -0.1990 
     29 N          24.0169   -1.6905   -3.5493 N.am      3 UNK        -0.4232 
     30 C          24.8897   -0.8741   -2.9434 C.2       2 UNK         0.4993 
     31 O          25.1276    0.2740   -3.3141 O.2       2 UNK        -0.5286 
     32 CA         25.6633   -1.4652   -1.7575 C.3       2 UNK         0.0209 
     33 CB         24.7952   -1.4846   -0.4892 C.3       2 UNK        -0.1931 
     34 N          26.1892   -2.8089   -2.0174 N.am      2 UNK        -0.4546 
     35 C          27.0593   -3.1227   -2.9884 C.2       1 UNK         0.5154 
     36 O          27.4302   -2.3243   -3.8546 O.2       1 UNK        -0.5181 
     37 C          27.5279    2.3022   -5.6740 C.2       5 UNK         0.5014 
     38 O          27.9923    3.3214   -6.1871 O.2       5 UNK        -0.5248 
     39 N          26.2702    2.2272   -5.2051 N.am      6 UNK        -0.4434 
     40 CA         25.2791    3.3053   -5.3318 C.3       6 UNK         0.0363 
     41 CB         24.0212    2.9632   -4.5193 C.3       6 UNK        -0.1936 
     42 C          24.8984    3.6210   -6.7910 C.2       6 UNK         0.5081 
     43 O          24.6121    4.7770   -7.1021 O.2       6 UNK        -0.5248 
     44 N          24.9349    2.6061   -7.6654 N.am      7 UNK        -0.4718 
     45 CA         24.7387    2.7319   -9.1132 C.3       7 UNK         0.0273 
     46 CB         24.1871    1.4029   -9.6584 C.3       7 UNK        -0.1935 
     47 C          26.0183    3.1490   -9.8677 C.2       7 UNK         0.5018 
     48 O          25.9838    3.2199  -11.0970 O.2       7 UNK        -0.5186 
     49 N          27.1147    3.4080   -9.1375 N.am      8 UNK        -0.4240 
     50 CA         28.4501    3.7761   -9.6212 C.3       8 UNK         0.0235 
     51 CB         28.4241    5.1156  -10.3897 C.3       8 UNK        -0.2000 
     52 C          29.1631    2.6470  -10.3918 C.2       8 UNK         0.4941 
     53 O          30.0151    2.9322  -11.2365 O.2       8 UNK        -0.5273 
     54 N          28.8323    1.3907  -10.0670 N.am      9 UNK        -0.4262 
     55 CA         29.5585    0.1926  -10.4816 C.3       9 UNK         0.0264 
     56 CB         28.5427   -0.8658  -10.9609 C.3       9 UNK        -0.1955 
     57 C          30.4361   -0.2729   -9.3023 C.2       9 UNK         0.5031 
     58 O          30.9386    0.5693   -8.5538 O.2       9 UNK        -0.5390 
     59 N          30.6026   -1.5949   -9.1494 N.am      10 UNK        -0.4204 
     60 CA         31.3962   -2.2657   -8.1123 C.3       10 UNK         0.0237 
     61 CB         30.8132   -1.9831   -6.7057 C.3       10 UNK        -0.1985 
     62 C          32.9030   -1.9516   -8.2374 C.2       10 UNK         0.4970 
     63 O          33.4139   -1.8475   -9.3549 O.2       10 UNK        -0.4914 
     64 N          33.5885   -1.8595   -7.0940 N.am      11 UNK        -0.4285 
     65 CA         35.0110   -1.5288   -6.9554 C.3       11 UNK         0.1007 
     66 C          35.3414   -0.0584   -7.3378 C.2       11 UNK         0.5703 
     67 N          36.5634    0.2026   -7.7831 N.am      11 UNK        -0.7361 
     68 O          34.5218    0.8482   -7.2052 O.2       11 UNK        -0.4986 
     69 C69        35.5307   -1.9006   -5.5378 C.3       12 UNK        -0.0947 
     70 S70        34.5267   -1.2171   -4.1697 S.3       12 UNK        -0.2240 
     71 C71        33.5320   -2.6797   -3.7122 C.3       12 UNK         0.0194 
     72 H72        31.2383   -4.6467   -4.7221 H         1 UNK         0.0906 
     73 H73        31.2315   -6.3579   -5.1281 H         1 UNK         0.0906 
     74 H74        30.4842   -5.1938   -6.2264 H         1 UNK         0.0906 
     75 H75        29.3498   -3.7042   -3.7352 H         1 UNK         0.3140 
     76 H76        26.8643   -5.1000   -3.6441 H         1 UNK         0.1085 
     77 H77        28.2269   -6.2585   -1.7789 H         1 UNK         0.0836 
     78 H78        26.6559   -5.6620   -1.3971 H         1 UNK         0.0836 
     79 H79        30.3934   -5.4013   -0.9388 H         1 UNK         0.0731 
     80 H80        30.6032   -4.4407    0.5041 H         1 UNK         0.0731 
     81 H81        32.2135   -4.4408   -2.1731 H         1 UNK         0.1312 
     82 H82        32.1222   -0.2954   -3.2845 H         1 UNK         0.1406 
     83 H83        29.2352   -1.8260   -0.5332 H         1 UNK         0.1631 
     84 H84        30.7566    1.2361   -1.9628 H         1 UNK         0.0717 
     85 H85        29.7055    0.6210   -0.7174 H         1 UNK         0.0717 
     86 H86        29.9909    1.8219   -4.4088 H         1 UNK         0.0934 
     87 H87        30.0289    0.0941   -4.5962 H         1 UNK         0.0934 
     88 H88        29.0487    1.1156   -6.5240 H         1 UNK         0.0739 
     89 H89        27.4991   -0.8368   -5.0995 H         1 UNK         0.3093 
     90 H90        25.6366   -1.6821   -8.1181 H         1 UNK         0.0818 
     91 H91        27.7998   -2.9295   -8.0582 H         1 UNK         0.0819 
     92 H92        27.6222   -3.1775   -6.3264 H         1 UNK         0.0819 
     93 H93        26.4686   -3.8936   -7.4451 H         1 UNK         0.0819 
     94 H94        25.4636   -2.4838   -5.3340 H         1 UNK         0.3041 
     95 H95        22.7275   -0.3912   -4.5318 H         1 UNK         0.0784 
     96 H96        21.5826   -2.1544   -5.8831 H         1 UNK         0.0793 
     97 H97        22.6410   -3.3842   -5.2063 H         1 UNK         0.0793 
     98 H98        21.5047   -2.5210   -4.1684 H         1 UNK         0.0793 
     99 H99        23.8881   -2.6203   -3.1772 H         1 UNK         0.3024 
    100 H100       26.5164   -0.8125   -1.5683 H         1 UNK         0.1171 
    101 H101       25.3724   -1.8011    0.3799 H         1 UNK         0.0786 
    102 H102       24.4036   -0.4900   -0.2704 H         1 UNK         0.0786 
    103 H103       23.9423   -2.1569   -0.5891 H         1 UNK         0.0786 
    104 H104       25.9659   -3.5183   -1.3339 H         1 UNK         0.2977 
    105 H105       25.9668    1.3840   -4.7231 H         1 UNK         0.3127 
    106 H106       25.7202    4.2096   -4.9073 H         1 UNK         0.0770 
    107 H107       23.5547    2.0421   -4.8706 H         1 UNK         0.0814 
    108 H108       23.2768    3.7568   -4.5963 H         1 UNK         0.0814 
    109 H109       24.2537    2.8410   -3.4614 H         1 UNK         0.0814 
    110 H110       25.1596    1.6785   -7.3266 H         1 UNK         0.2983 
    111 H111       23.9934    3.5074   -9.3023 H         1 UNK         0.0947 
    112 H112       23.9756    1.4707  -10.7262 H         1 UNK         0.0806 
    113 H113       23.2553    1.1287   -9.1635 H         1 UNK         0.0806 
    114 H114       24.8935    0.5844   -9.5171 H         1 UNK         0.0806 
    115 H115       27.0428    3.3030   -8.1320 H         1 UNK         0.3000 
    116 H116       29.0495    3.9335   -8.7233 H         1 UNK         0.0850 
    117 H117       29.4358    5.4689  -10.5925 H         1 UNK         0.0810 
    118 H118       27.9207    5.8933   -9.8153 H         1 UNK         0.0810 
    119 H119       27.9164    5.0238  -11.3501 H         1 UNK         0.0810 
    120 H120       28.1451    1.2367   -9.3317 H         1 UNK         0.3040 
    121 H121       30.2289    0.4213  -11.3123 H         1 UNK         0.0766 
    122 H122       27.8785   -0.4517  -11.7199 H         1 UNK         0.0812 
    123 H123       27.9178   -1.2325  -10.1458 H         1 UNK         0.0812 
    124 H124       29.0407   -1.7230  -11.4146 H         1 UNK         0.0812 
    125 H125       30.1891   -2.2028   -9.8420 H         1 UNK         0.3205 
    126 H126       31.2956   -3.3354   -8.3009 H         1 UNK         0.0754 
    127 H127       31.2485   -2.6325   -5.9489 H         1 UNK         0.0769 
    128 H128       29.7387   -2.1492   -6.6802 H         1 UNK         0.0769 
    129 H129       30.9921   -0.9534   -6.3974 H         1 UNK         0.0769 
    130 H130       33.0756   -1.8921   -6.2273 H         1 UNK         0.2981 
    131 H131       35.5444   -2.1609   -7.6683 H         1 UNK         0.0541 
    132 H132       37.2502   -0.5284   -7.8856 H         1 UNK         0.3459 
    133 H133       36.8031    1.1517   -8.0241 H         1 UNK         0.3459 
    134 H134       35.5660   -2.9866   -5.4389 H         1 UNK         0.0612 
    135 H135       36.5622   -1.5690   -5.4055 H         1 UNK         0.0612 
    136 H136       34.1938   -3.3829   -3.2040 H         1 UNK         0.0624 
    137 H137       33.1905   -3.1816   -4.6165 H         1 UNK         0.0624 
@<TRIPOS>BOND
     1    1    2 1    
     2    1   72 1    
     3    1   73 1    
     4    1   74 1    
     5    2    3 2    
     6    2    4 am   BACKBONE|DICT|INTERRES
     7    4    5 1    
     8    4   75 1    
     9    5    6 1    
    10    5   35 1    
    11    5   76 1    
    12    6    7 1    
    13    6   77 1    
    14    6   78 1    
    15    7    8 1    
    16    8    9 1    
    17    8   79 1    
    18    8   80 1    
    19    9   10 ar   
    20    9   14 ar   
    21   10   11 ar   
    22   10   81 1    
    23   11   12 ar   
    24   11   71 1    
    25   12   13 ar   
    26   12   82 1    
    27   13   14 ar   
    28   13   15 1    
    29   14   83 1    
    30   15   16 1    
    31   15   84 1    
    32   15   85 1    
    33   16   17 1    
    34   17   18 1    
    35   17   86 1    
    36   17   87 1    
    37   18   19 1    
    38   18   37 1    
    39   18   88 1    
    40   19   20 am   BACKBONE|DICT|INTERRES
    41   19   89 1    
    42   20   21 2    
    43   20   22 1    
    44   22   23 1    
    45   22   24 1    
    46   22   90 1    
    47   23   91 1    
    48   23   92 1    
    49   23   93 1    
    50   24   25 am   BACKBONE|DICT|INTERRES
    51   24   94 1    
    52   25   26 2    
    53   25   27 1    
    54   27   28 1    
    55   27   29 1    
    56   27   95 1    
    57   28   96 1    
    58   28   97 1    
    59   28   98 1    
    60   29   30 am   BACKBONE|DICT|INTERRES
    61   29   99 1    
    62   30   31 2    
    63   30   32 1    
    64   32   33 1    
    65   32   34 1    
    66   32  100 1    
    67   33  101 1    
    68   33  102 1    
    69   33  103 1    
    70   34   35 am   BACKBONE|DICT|INTERRES
    71   34  104 1    
    72   35   36 2    
    73   37   38 2    
    74   37   39 am   BACKBONE|DICT|INTERRES
    75   39   40 1    
    76   39  105 1    
    77   40   41 1    
    78   40   42 1    
    79   40  106 1    
    80   41  107 1    
    81   41  108 1    
    82   41  109 1    
    83   42   43 2    
    84   42   44 am   BACKBONE|DICT|INTERRES
    85   44   45 1    
    86   44  110 1    
    87   45   46 1    
    88   45   47 1    
    89   45  111 1    
    90   46  112 1    
    91   46  113 1    
    92   46  114 1    
    93   47   48 2    
    94   47   49 am   BACKBONE|DICT|INTERRES
    95   49   50 1    
    96   49  115 1    
    97   50   51 1    
    98   50   52 1    
    99   50  116 1    
   100   51  117 1    
   101   51  118 1    
   102   51  119 1    
   103   52   53 2    
   104   52   54 am   BACKBONE|DICT|INTERRES
   105   54   55 1    
   106   54  120 1    
   107   55   56 1    
   108   55   57 1    
   109   55  121 1    
   110   56  122 1    
   111   56  123 1    
   112   56  124 1    
   113   57   58 2    
   114   57   59 am   BACKBONE|DICT|INTERRES
   115   59   60 1    
   116   59  125 1    
   117   60   61 1    
   118   60   62 1    
   119   60  126 1    
   120   61  127 1    
   121   61  128 1    
   122   61  129 1    
   123   62   63 2    
   124   62   64 am   BACKBONE|DICT|INTERRES
   125   64   65 1    
   126   64  130 1    
   127   65   66 1    
   128   65   69 1    
   129   65  131 1    
   130   66   67 am   BACKBONE|DICT|INTERRES
   131   66   68 2    
   132   67  132 1    
   133   67  133 1    
   134   69   70 1    
   135   69  134 1    
   136   69  135 1    
   137   70   71 1    
   138   71  136 1    
   139   71  137 1    
@<TRIPOS>SUBSTRUCTURE
     1 UNK         1 GROUP             0       ****    0 ROOT    
