@<TRIPOS>MOLECULE
3R137
137   139    1
SMALL
USER_CHARGES


@<TRIPOS>ATOM
      1 CA         25.8481   -4.4543   -9.5734 C.3       0 UNK        -0.2020 
      2 C          25.6065   -4.5588   -8.0752 C.2       0 UNK         0.4855 
      3 O          24.6949   -5.2672   -7.6458 O.2       0 UNK        -0.5197 
      4 N          26.4151   -3.8551   -7.2743 N.am      1 UNK        -0.4892 
      5 CA         26.3339   -3.8039   -5.8105 C.3       1 UNK         0.0835 
      6 C6         27.6932   -3.3911   -5.1892 C.3       12 UNK        -0.0855 
      7 S7         28.9630   -4.6692   -5.4724 S.3       12 UNK        -0.2931 
      8 C8         29.7842   -4.7619   -3.8504 C.3       12 UNK         0.0378 
      9 C9         30.8162   -3.6564   -3.6803 C.ar      12 UNK        -0.0802 
     10 C10        32.0450   -3.7539   -4.3381 C.ar      12 UNK        -0.0944 
     11 C11        33.0215   -2.7682   -4.1752 C.ar      12 UNK        -0.0787 
     12 C12        32.7574   -1.6757   -3.3434 C.ar      12 UNK        -0.0862 
     13 C13        31.5389   -1.5672   -2.6642 C.ar      12 UNK        -0.0733 
     14 C14        30.5699   -2.5653   -2.8401 C.ar      12 UNK        -0.0832 
     15 C15        31.3455   -0.4106   -1.6826 C.3       12 UNK         0.0240 
     16 S16        29.6253    0.1657   -1.4871 S.3       12 UNK        -0.2522 
     17 C17        29.3463    1.0623   -3.0507 C.3       12 UNK        -0.0967 
     18 CA         28.3431    0.3333   -3.9811 C.3       5 UNK         0.0660 
     19 N          27.0439    0.0483   -3.3533 N.am      5 UNK        -0.4015 
     20 C          26.1823    0.9020   -2.7890 C.2       4 UNK         0.4946 
     21 O          26.3056    2.1302   -2.8076 O.2       4 UNK        -0.5353 
     22 CA         24.9849    0.2743   -2.0703 C.3       4 UNK         0.0277 
     23 CB         25.3470   -0.0350   -0.6055 C.3       4 UNK        -0.1981 
     24 N          23.8726    1.2201   -2.1235 N.am      4 UNK        -0.4209 
     25 C          22.5588    0.9605   -2.1390 C.2       3 UNK         0.4942 
     26 O          21.7301    1.8616   -2.2645 O.2       3 UNK        -0.5208 
     27 CA         22.0686   -0.4972   -2.0578 C.3       3 UNK         0.0250 
     28 CB         20.6236   -0.6098   -1.5332 C.3       3 UNK        -0.1990 
     29 N          22.1403   -1.0753   -3.3967 N.am      3 UNK        -0.4232 
     30 C          22.6181   -2.2895   -3.6928 C.2       2 UNK         0.4993 
     31 O          23.0032   -3.0976   -2.8446 O.2       2 UNK        -0.5286 
     32 CA         22.6784   -2.6830   -5.1839 C.3       2 UNK         0.0209 
     33 CB         22.3944   -1.5188   -6.1601 C.3       2 UNK        -0.1931 
     34 N          23.9414   -3.3465   -5.5341 N.am      2 UNK        -0.4546 
     35 C          25.1852   -2.8709   -5.3758 C.2       1 UNK         0.5154 
     36 O          25.4432   -1.7435   -4.9506 O.2       1 UNK        -0.5181 
     37 C          28.2344    1.0563   -5.3375 C.2       5 UNK         0.5014 
     38 O          28.9808    0.7146   -6.2568 O.2       5 UNK        -0.5248 
     39 N          27.3233    2.0315   -5.4492 N.am      6 UNK        -0.4434 
     40 CA         27.1210    2.9096   -6.6055 C.3       6 UNK         0.0363 
     41 CB         25.9760    3.8888   -6.3045 C.3       6 UNK        -0.1936 
     42 C          26.8636    2.1756   -7.9313 C.2       6 UNK         0.5081 
     43 O          27.3644    2.6152   -8.9656 O.2       6 UNK        -0.5248 
     44 N          26.1449    1.0451   -7.8824 N.am      7 UNK        -0.4718 
     45 CA         25.8698    0.1980   -9.0500 C.3       7 UNK         0.0273 
     46 CB         24.7396   -0.7843   -8.7156 C.3       7 UNK        -0.1935 
     47 C          27.1064   -0.5464   -9.5895 C.2       7 UNK         0.5018 
     48 O          27.0878   -0.9727  -10.7439 O.2       7 UNK        -0.5186 
     49 N          28.1560   -0.6722   -8.7660 N.am      8 UNK        -0.4240 
     50 CA         29.4777   -1.1675   -9.1576 C.3       8 UNK         0.0235 
     51 CB         29.9470   -2.2006   -8.1160 C.3       8 UNK        -0.2000 
     52 C          30.4999   -0.0209   -9.2803 C.2       8 UNK         0.4941 
     53 O          31.6886   -0.3027   -9.4347 O.2       8 UNK        -0.5273 
     54 N          30.0522    1.2411   -9.1476 N.am      9 UNK        -0.4262 
     55 CA         30.8554    2.4700   -9.0560 C.3       9 UNK         0.0264 
     56 CB         31.4802    2.8057  -10.4264 C.3       9 UNK        -0.1955 
     57 C          31.9029    2.4276   -7.9222 C.2       9 UNK         0.5031 
     58 O          32.9911    2.9876   -8.0720 O.2       9 UNK        -0.5390 
     59 N          31.5830    1.7002   -6.8383 N.am      10 UNK        -0.4204 
     60 CA         32.4644    1.3184   -5.7264 C.3       10 UNK         0.0237 
     61 CB         32.7332    2.5318   -4.8128 C.3       10 UNK        -0.1985 
     62 C          33.7618    0.6072   -6.1736 C.2       10 UNK         0.4970 
     63 O          34.7745    0.6976   -5.4777 O.2       10 UNK        -0.4914 
     64 N          33.7068   -0.0704   -7.3292 N.am      11 UNK        -0.4285 
     65 CA         34.8299   -0.7062   -8.0332 C.3       11 UNK         0.1007 
     66 C          35.8681    0.2983   -8.6210 C.2       11 UNK         0.5703 
     67 N          35.5605    1.5861   -8.7395 N.am      11 UNK        -0.7361 
     68 O          36.9652   -0.0972   -9.0092 O.2       11 UNK        -0.4986 
     69 C69        35.4896   -1.8699   -7.2389 C.3       12 UNK        -0.0947 
     70 S70        34.2735   -3.0999   -6.6492 S.3       12 UNK        -0.2240 
     71 C71        34.3857   -2.9162   -4.8377 C.3       12 UNK         0.0194 
     72 H72        24.9605   -4.0634  -10.0699 H         1 UNK         0.0906 
     73 H73        26.6846   -3.7960   -9.8086 H         1 UNK         0.0906 
     74 H74        26.0648   -5.4385   -9.9876 H         1 UNK         0.0906 
     75 H75        27.1509   -3.2984   -7.6823 H         1 UNK         0.3140 
     76 H76        26.0895   -4.8012   -5.4363 H         1 UNK         0.1085 
     77 H77        27.5874   -3.2280   -4.1153 H         1 UNK         0.0836 
     78 H78        28.0447   -2.4481   -5.6109 H         1 UNK         0.0836 
     79 H79        30.2838   -5.7286   -3.7700 H         1 UNK         0.0731 
     80 H80        29.0439   -4.7408   -3.0492 H         1 UNK         0.0731 
     81 H81        32.2456   -4.6066   -4.9727 H         1 UNK         0.1312 
     82 H82        33.5201   -0.9225   -3.1961 H         1 UNK         0.1406 
     83 H83        29.6326   -2.5091   -2.3044 H         1 UNK         0.1631 
     84 H84        31.9679    0.4401   -1.9656 H         1 UNK         0.0717 
     85 H85        31.7045   -0.7374   -0.7060 H         1 UNK         0.0717 
     86 H86        28.9916    2.0652   -2.8064 H         1 UNK         0.0934 
     87 H87        30.3025    1.2024   -3.5546 H         1 UNK         0.0934 
     88 H88        28.7712   -0.6442   -4.2054 H         1 UNK         0.0739 
     89 H89        26.7534   -0.9191   -3.4112 H         1 UNK         0.3093 
     90 H90        24.7278   -0.6491   -2.5883 H         1 UNK         0.0818 
     91 H91        26.1830   -0.7337   -0.5497 H         1 UNK         0.0819 
     92 H92        25.6439    0.8671   -0.0685 H         1 UNK         0.0819 
     93 H93        24.5171   -0.4841   -0.0616 H         1 UNK         0.0819 
     94 H94        24.1809    2.1778   -2.2387 H         1 UNK         0.3041 
     95 H95        22.7093   -1.0429   -1.3647 H         1 UNK         0.0784 
     96 H96        20.5283   -0.1455   -0.5508 H         1 UNK         0.0793 
     97 H97        19.9091   -0.1221   -2.1977 H         1 UNK         0.0793 
     98 H98        20.3229   -1.6525   -1.4296 H         1 UNK         0.0793 
     99 H99        21.8738   -0.4609   -4.1539 H         1 UNK         0.3024 
    100 H100       21.8930   -3.4277   -5.3229 H         1 UNK         0.1171 
    101 H101       23.1178   -0.7094   -6.0541 H         1 UNK         0.0786 
    102 H102       22.4309   -1.8652   -7.1928 H         1 UNK         0.0786 
    103 H103       21.3978   -1.1022   -6.0091 H         1 UNK         0.0786 
    104 H104       23.8550   -4.2656   -5.9543 H         1 UNK         0.2977 
    105 H105       26.7889    2.2465   -4.6098 H         1 UNK         0.3127 
    106 H106       28.0390    3.4874   -6.7310 H         1 UNK         0.0770 
    107 H107       25.0352    3.3667   -6.1249 H         1 UNK         0.0814 
    108 H108       25.8163    4.5730   -7.1392 H         1 UNK         0.0814 
    109 H109       26.1944    4.4970   -5.4265 H         1 UNK         0.0814 
    110 H110       25.7838    0.7379   -6.9899 H         1 UNK         0.2983 
    111 H111       25.5199    0.8451   -9.8579 H         1 UNK         0.0947 
    112 H112       24.5263   -1.4433   -9.5584 H         1 UNK         0.0806 
    113 H113       23.8173   -0.2522   -8.4840 H         1 UNK         0.0806 
    114 H114       24.9920   -1.4125   -7.8637 H         1 UNK         0.0806 
    115 H115       28.1021   -0.2590   -7.8405 H         1 UNK         0.3000 
    116 H116       29.4328   -1.6595  -10.1313 H         1 UNK         0.0850 
    117 H117       30.0248   -1.7668   -7.1180 H         1 UNK         0.0810 
    118 H118       30.9289   -2.6028   -8.3695 H         1 UNK         0.0810 
    119 H119       29.2645   -3.0475   -8.0639 H         1 UNK         0.0810 
    120 H120       29.0537    1.3853   -9.0477 H         1 UNK         0.3040 
    121 H121       30.1624    3.2723   -8.7992 H         1 UNK         0.0766 
    122 H122       32.2290    2.0690  -10.7198 H         1 UNK         0.0812 
    123 H123       30.7222    2.8443  -11.2086 H         1 UNK         0.0812 
    124 H124       31.9722    3.7789  -10.4057 H         1 UNK         0.0812 
    125 H125       30.6496    1.2916   -6.8046 H         1 UNK         0.3205 
    126 H126       31.9115    0.5773   -5.1486 H         1 UNK         0.0754 
    127 H127       33.2591    2.2319   -3.9056 H         1 UNK         0.0769 
    128 H128       31.8045    3.0115   -4.5042 H         1 UNK         0.0769 
    129 H129       33.3464    3.2819   -5.3135 H         1 UNK         0.0769 
    130 H130       32.8407   -0.0704   -7.8587 H         1 UNK         0.2981 
    131 H131       34.3733   -1.1553   -8.9156 H         1 UNK         0.0541 
    132 H132       36.2404    2.2170   -9.1319 H         1 UNK         0.3459 
    133 H133       34.6581    1.9424   -8.4412 H         1 UNK         0.3459 
    134 H134       36.0829   -1.4820   -6.4106 H         1 UNK         0.0612 
    135 H135       36.1943   -2.4040   -7.8783 H         1 UNK         0.0612 
    136 H136       34.8829   -3.7971   -4.4299 H         1 UNK         0.0624 
    137 H137       35.0177   -2.0665   -4.5787 H         1 UNK         0.0624 
@<TRIPOS>BOND
     1    1    2 1    
     2    1   72 1    
     3    1   73 1    
     4    1   74 1    
     5    2    3 2    
     6    2    4 am   BACKBONE|DICT|INTERRES
     7    4    5 1    
     8    4   75 1    
     9    5    6 1    
    10    5   35 1    
    11    5   76 1    
    12    6    7 1    
    13    6   77 1    
    14    6   78 1    
    15    7    8 1    
    16    8    9 1    
    17    8   79 1    
    18    8   80 1    
    19    9   10 ar   
    20    9   14 ar   
    21   10   11 ar   
    22   10   81 1    
    23   11   12 ar   
    24   11   71 1    
    25   12   13 ar   
    26   12   82 1    
    27   13   14 ar   
    28   13   15 1    
    29   14   83 1    
    30   15   16 1    
    31   15   84 1    
    32   15   85 1    
    33   16   17 1    
    34   17   18 1    
    35   17   86 1    
    36   17   87 1    
    37   18   19 1    
    38   18   37 1    
    39   18   88 1    
    40   19   20 am   BACKBONE|DICT|INTERRES
    41   19   89 1    
    42   20   21 2    
    43   20   22 1    
    44   22   23 1    
    45   22   24 1    
    46   22   90 1    
    47   23   91 1    
    48   23   92 1    
    49   23   93 1    
    50   24   25 am   BACKBONE|DICT|INTERRES
    51   24   94 1    
    52   25   26 2    
    53   25   27 1    
    54   27   28 1    
    55   27   29 1    
    56   27   95 1    
    57   28   96 1    
    58   28   97 1    
    59   28   98 1    
    60   29   30 am   BACKBONE|DICT|INTERRES
    61   29   99 1    
    62   30   31 2    
    63   30   32 1    
    64   32   33 1    
    65   32   34 1    
    66   32  100 1    
    67   33  101 1    
    68   33  102 1    
    69   33  103 1    
    70   34   35 am   BACKBONE|DICT|INTERRES
    71   34  104 1    
    72   35   36 2    
    73   37   38 2    
    74   37   39 am   BACKBONE|DICT|INTERRES
    75   39   40 1    
    76   39  105 1    
    77   40   41 1    
    78   40   42 1    
    79   40  106 1    
    80   41  107 1    
    81   41  108 1    
    82   41  109 1    
    83   42   43 2    
    84   42   44 am   BACKBONE|DICT|INTERRES
    85   44   45 1    
    86   44  110 1    
    87   45   46 1    
    88   45   47 1    
    89   45  111 1    
    90   46  112 1    
    91   46  113 1    
    92   46  114 1    
    93   47   48 2    
    94   47   49 am   BACKBONE|DICT|INTERRES
    95   49   50 1    
    96   49  115 1    
    97   50   51 1    
    98   50   52 1    
    99   50  116 1    
   100   51  117 1    
   101   51  118 1    
   102   51  119 1    
   103   52   53 2    
   104   52   54 am   BACKBONE|DICT|INTERRES
   105   54   55 1    
   106   54  120 1    
   107   55   56 1    
   108   55   57 1    
   109   55  121 1    
   110   56  122 1    
   111   56  123 1    
   112   56  124 1    
   113   57   58 2    
   114   57   59 am   BACKBONE|DICT|INTERRES
   115   59   60 1    
   116   59  125 1    
   117   60   61 1    
   118   60   62 1    
   119   60  126 1    
   120   61  127 1    
   121   61  128 1    
   122   61  129 1    
   123   62   63 2    
   124   62   64 am   BACKBONE|DICT|INTERRES
   125   64   65 1    
   126   64  130 1    
   127   65   66 1    
   128   65   69 1    
   129   65  131 1    
   130   66   67 am   BACKBONE|DICT|INTERRES
   131   66   68 2    
   132   67  132 1    
   133   67  133 1    
   134   69   70 1    
   135   69  134 1    
   136   69  135 1    
   137   70   71 1    
   138   71  136 1    
   139   71  137 1    
@<TRIPOS>SUBSTRUCTURE
     1 UNK         1 GROUP             0       ****    0 ROOT    
