@<TRIPOS>MOLECULE
3R137
137   139    1
SMALL
USER_CHARGES


@<TRIPOS>ATOM
      1 CA         27.9402   -0.7841    3.9734 C.3       0 UNK        -0.2020 
      2 C          28.1016   -0.5579    2.4775 C.2       0 UNK         0.4855 
      3 O          28.5754    0.5019    2.0680 O.2       0 UNK        -0.5197 
      4 N          27.7170   -1.5486    1.6612 N.am      1 UNK        -0.4892 
      5 CA         27.7634   -1.4976    0.1946 C.3       1 UNK         0.0835 
      6 C6         27.5437   -2.9091   -0.4098 C.3       12 UNK        -0.0855 
      7 S7         27.9090   -2.9940   -2.1947 S.3       12 UNK        -0.2931 
      8 C8         29.4515   -3.9526   -2.1899 C.3       12 UNK         0.0378 
      9 C9         30.0555   -4.0277   -3.5828 C.ar      12 UNK        -0.0802 
     10 C10        31.1846   -3.2688   -3.9020 C.ar      12 UNK        -0.0944 
     11 C11        31.7677   -3.3603   -5.1690 C.ar      12 UNK        -0.0787 
     12 C12        31.2026   -4.2130   -6.1249 C.ar      12 UNK        -0.0862 
     13 C13        30.0606   -4.9625   -5.8239 C.ar      12 UNK        -0.0733 
     14 C14        29.4972   -4.8715   -4.5471 C.ar      12 UNK        -0.0832 
     15 C15        29.4540   -5.8956   -6.8647 C.3       12 UNK         0.0240 
     16 S16        28.6111   -5.0039   -8.2132 S.3       12 UNK        -0.2522 
     17 C17        27.2112   -4.2107   -7.3470 C.3       12 UNK        -0.0967 
     18 CA         26.8954   -2.7877   -7.8740 C.3       5 UNK         0.0660 
     19 N          25.6061   -2.3062   -7.3629 N.am      5 UNK        -0.4015 
     20 C          25.0334   -1.1314   -7.6658 C.2       4 UNK         0.4946 
     21 O          25.5205   -0.3145   -8.4449 O.2       4 UNK        -0.5353 
     22 CA         23.7045   -0.7796   -6.9755 C.3       4 UNK         0.0277 
     23 CB         22.5255   -1.0564   -7.9221 C.3       4 UNK        -0.1981 
     24 N          23.4682   -1.4540   -5.6941 N.am      4 UNK        -0.4209 
     25 C          24.2384   -1.3395   -4.6035 C.2       3 UNK         0.4942 
     26 O          25.3117   -0.7322   -4.5777 O.2       3 UNK        -0.5208 
     27 CA         23.7356   -2.0788   -3.3526 C.3       3 UNK         0.0250 
     28 CB         24.2083   -3.5422   -3.3685 C.3       3 UNK        -0.1990 
     29 N          24.1891   -1.4407   -2.1164 N.am      3 UNK        -0.4232 
     30 C          23.7664   -0.2518   -1.6604 C.2       2 UNK         0.4993 
     31 O          22.8940    0.4174   -2.2169 O.2       2 UNK        -0.5286 
     32 CA         24.3862    0.2752   -0.3489 C.3       2 UNK         0.0209 
     33 CB         23.3260    0.3462    0.7640 C.3       2 UNK        -0.1931 
     34 N          25.5150   -0.5292    0.1297 N.am      2 UNK        -0.4546 
     35 C          26.7572   -0.4721   -0.3713 C.2       1 UNK         0.5154 
     36 O          27.1112    0.3345   -1.2316 O.2       1 UNK        -0.5181 
     37 C          28.0474   -1.7943   -7.6049 C.2       5 UNK         0.5014 
     38 O          28.8027   -1.4823   -8.5278 O.2       5 UNK        -0.5248 
     39 N          28.1180   -1.2686   -6.3721 N.am      6 UNK        -0.4434 
     40 CA         29.1258   -0.2926   -5.9519 C.3       6 UNK         0.0363 
     41 CB         29.0338   -0.0771   -4.4345 C.3       6 UNK        -0.1936 
     42 C          29.0272    1.0487   -6.6967 C.2       6 UNK         0.5081 
     43 O          30.0563    1.6808   -6.9375 O.2       6 UNK        -0.5248 
     44 N          27.8020    1.4509   -7.0593 N.am      7 UNK        -0.4718 
     45 CA         27.5311    2.6461   -7.8557 C.3       7 UNK         0.0273 
     46 CB         26.0817    3.1050   -7.6262 C.3       7 UNK        -0.1935 
     47 C          27.8038    2.4044   -9.3476 C.2       7 UNK         0.5018 
     48 O          28.4563    3.2340   -9.9800 O.2       7 UNK        -0.5186 
     49 N          27.3183    1.2717   -9.8766 N.am      8 UNK        -0.4240 
     50 CA         27.4397    0.8708  -11.2807 C.3       8 UNK         0.0235 
     51 CB         26.5931   -0.3870  -11.5350 C.3       8 UNK        -0.2000 
     52 C          28.8917    0.6454  -11.7269 C.2       8 UNK         0.4941 
     53 O          29.2741    1.1253  -12.7949 O.2       8 UNK        -0.5273 
     54 N          29.6788   -0.0551  -10.8989 N.am      9 UNK        -0.4262 
     55 CA         31.1100   -0.2757  -11.1269 C.3       9 UNK         0.0264 
     56 CB         31.5306   -1.5820  -10.4353 C.3       9 UNK        -0.1955 
     57 C          31.9847    0.9053  -10.6623 C.2       9 UNK         0.5031 
     58 O          33.1776    0.9155  -10.9684 O.2       9 UNK        -0.5390 
     59 N          31.3921    1.8617   -9.9288 N.am      10 UNK        -0.4204 
     60 CA         32.0002    3.0651   -9.3414 C.3       10 UNK         0.0237 
     61 CB         32.4934    4.0260  -10.4439 C.3       10 UNK        -0.1985 
     62 C          33.0815    2.7758   -8.2783 C.2       10 UNK         0.4970 
     63 O          33.8891    3.6559   -7.9747 O.2       10 UNK        -0.4914 
     64 N          33.0724    1.5588   -7.7260 N.am      11 UNK        -0.4285 
     65 CA         33.9688    1.0858   -6.6649 C.3       11 UNK         0.1007 
     66 C          33.4914    1.4363   -5.2264 C.2       11 UNK         0.5703 
     67 N          32.2662    1.9081   -5.0254 N.am      11 UNK        -0.7361 
     68 O          34.2584    1.2963   -4.2767 O.2       11 UNK        -0.4986 
     69 C69        34.2826   -0.4240   -6.8378 C.3       12 UNK        -0.0947 
     70 S70        32.7859   -1.4657   -6.9160 S.3       12 UNK        -0.2240 
     71 C71        33.0231   -2.5581   -5.4854 C.3       12 UNK         0.0194 
     72 H72        27.5193   -1.7643    4.1963 H         1 UNK         0.0906 
     73 H73        28.9072   -0.7099    4.4704 H         1 UNK         0.0906 
     74 H74        27.2804   -0.0277    4.3977 H         1 UNK         0.0906 
     75 H75        27.3493   -2.3998    2.0633 H         1 UNK         0.3140 
     76 H76        28.7631   -1.1587   -0.0881 H         1 UNK         0.1085 
     77 H77        28.1740   -3.6335    0.1089 H         1 UNK         0.0836 
     78 H78        26.5192   -3.2506   -0.2500 H         1 UNK         0.0836 
     79 H79        30.1567   -3.4985   -1.4918 H         1 UNK         0.0731 
     80 H80        29.2531   -4.9600   -1.8205 H         1 UNK         0.0731 
     81 H81        31.6175   -2.6149   -3.1573 H         1 UNK         0.1312 
     82 H82        31.6483   -4.2877   -7.1076 H         1 UNK         0.1406 
     83 H83        28.6220   -5.4566   -4.2983 H         1 UNK         0.1631 
     84 H84        30.2458   -6.5104   -7.2950 H         1 UNK         0.0717 
     85 H85        28.7499   -6.5893   -6.4026 H         1 UNK         0.0717 
     86 H86        26.3444   -4.8587   -7.4863 H         1 UNK         0.0934 
     87 H87        27.3932   -4.1857   -6.2720 H         1 UNK         0.0934 
     88 H88        26.7825   -2.8528   -8.9583 H         1 UNK         0.0739 
     89 H89        25.1251   -2.9081   -6.7122 H         1 UNK         0.3093 
     90 H90        23.7316    0.2933   -6.7730 H         1 UNK         0.0818 
     91 H91        21.5845   -0.7024   -7.5005 H         1 UNK         0.0819 
     92 H92        22.6619   -0.5440   -8.8758 H         1 UNK         0.0819 
     93 H93        22.4201   -2.1206   -8.1370 H         1 UNK         0.0819 
     94 H94        22.6158   -1.9922   -5.6254 H         1 UNK         0.3041 
     95 H95        22.6434   -2.0645   -3.3532 H         1 UNK         0.0784 
     96 H96        23.8121   -4.0735   -4.2348 H         1 UNK         0.0793 
     97 H97        25.2950   -3.6159   -3.4134 H         1 UNK         0.0793 
     98 H98        23.8719   -4.0795   -2.4816 H         1 UNK         0.0793 
     99 H99        24.9432   -1.8954   -1.6255 H         1 UNK         0.3024 
    100 H100       24.7398    1.2893   -0.5503 H         1 UNK         0.1171 
    101 H101       23.7382    0.7737    1.6783 H         1 UNK         0.0786 
    102 H102       22.4863    0.9757    0.4658 H         1 UNK         0.0786 
    103 H103       22.9247   -0.6394    1.0035 H         1 UNK         0.0786 
    104 H104       25.3196   -1.1998    0.8592 H         1 UNK         0.2977 
    105 H105       27.4218   -1.5253   -5.6847 H         1 UNK         0.3127 
    106 H106       30.1056   -0.7164   -6.1735 H         1 UNK         0.0770 
    107 H107       28.0416    0.2592   -4.1299 H         1 UNK         0.0814 
    108 H108       29.7516    0.6718   -4.0987 H         1 UNK         0.0814 
    109 H109       29.2564   -0.9961   -3.8945 H         1 UNK         0.0814 
    110 H110       27.0179    0.8466   -6.8554 H         1 UNK         0.2983 
    111 H111       28.1948    3.4470   -7.5209 H         1 UNK         0.0947 
    112 H112       25.8668    4.0111   -8.1943 H         1 UNK         0.0806 
    113 H113       25.9004    3.3315   -6.5755 H         1 UNK         0.0806 
    114 H114       25.3590    2.3490   -7.9348 H         1 UNK         0.0806 
    115 H115       26.7609    0.6588   -9.2814 H         1 UNK         0.3000 
    116 H116       27.0320    1.6822  -11.8874 H         1 UNK         0.0850 
    117 H117       26.6553   -0.6976  -12.5788 H         1 UNK         0.0810 
    118 H118       25.5412   -0.2076  -11.3117 H         1 UNK         0.0810 
    119 H119       26.9248   -1.2261  -10.9222 H         1 UNK         0.0810 
    120 H120       29.2832   -0.4576  -10.0496 H         1 UNK         0.3040 
    121 H121       31.2855   -0.3980  -12.1979 H         1 UNK         0.0766 
    122 H122       31.0005   -2.4382  -10.8524 H         1 UNK         0.0812 
    123 H123       31.3200   -1.5537   -9.3676 H         1 UNK         0.0812 
    124 H124       32.5984   -1.7700  -10.5549 H         1 UNK         0.0812 
    125 H125       30.4037    1.7552   -9.7441 H         1 UNK         0.3205 
    126 H126       31.1929    3.5687   -8.8074 H         1 UNK         0.0754 
    127 H127       32.8015    4.9834  -10.0219 H         1 UNK         0.0769 
    128 H128       31.7056    4.2326  -11.1685 H         1 UNK         0.0769 
    129 H129       33.3488    3.6186  -10.9836 H         1 UNK         0.0769 
    130 H130       32.3405    0.9170   -7.9927 H         1 UNK         0.2981 
    131 H131       34.9191    1.6099   -6.7813 H         1 UNK         0.0541 
    132 H132       31.6062    1.9777   -5.7935 H         1 UNK         0.3459 
    133 H133       31.9804    2.1479   -4.0905 H         1 UNK         0.3459 
    134 H134       34.9494   -0.7762   -6.0487 H         1 UNK         0.0612 
    135 H135       34.8300   -0.5729   -7.7697 H         1 UNK         0.0612 
    136 H136       33.3176   -1.9531   -4.6262 H         1 UNK         0.0624 
    137 H137       33.8485   -3.2419   -5.6875 H         1 UNK         0.0624 
@<TRIPOS>BOND
     1    1    2 1    
     2    1   72 1    
     3    1   73 1    
     4    1   74 1    
     5    2    3 2    
     6    2    4 am   BACKBONE|DICT|INTERRES
     7    4    5 1    
     8    4   75 1    
     9    5    6 1    
    10    5   35 1    
    11    5   76 1    
    12    6    7 1    
    13    6   77 1    
    14    6   78 1    
    15    7    8 1    
    16    8    9 1    
    17    8   79 1    
    18    8   80 1    
    19    9   10 ar   
    20    9   14 ar   
    21   10   11 ar   
    22   10   81 1    
    23   11   12 ar   
    24   11   71 1    
    25   12   13 ar   
    26   12   82 1    
    27   13   14 ar   
    28   13   15 1    
    29   14   83 1    
    30   15   16 1    
    31   15   84 1    
    32   15   85 1    
    33   16   17 1    
    34   17   18 1    
    35   17   86 1    
    36   17   87 1    
    37   18   19 1    
    38   18   37 1    
    39   18   88 1    
    40   19   20 am   BACKBONE|DICT|INTERRES
    41   19   89 1    
    42   20   21 2    
    43   20   22 1    
    44   22   23 1    
    45   22   24 1    
    46   22   90 1    
    47   23   91 1    
    48   23   92 1    
    49   23   93 1    
    50   24   25 am   BACKBONE|DICT|INTERRES
    51   24   94 1    
    52   25   26 2    
    53   25   27 1    
    54   27   28 1    
    55   27   29 1    
    56   27   95 1    
    57   28   96 1    
    58   28   97 1    
    59   28   98 1    
    60   29   30 am   BACKBONE|DICT|INTERRES
    61   29   99 1    
    62   30   31 2    
    63   30   32 1    
    64   32   33 1    
    65   32   34 1    
    66   32  100 1    
    67   33  101 1    
    68   33  102 1    
    69   33  103 1    
    70   34   35 am   BACKBONE|DICT|INTERRES
    71   34  104 1    
    72   35   36 2    
    73   37   38 2    
    74   37   39 am   BACKBONE|DICT|INTERRES
    75   39   40 1    
    76   39  105 1    
    77   40   41 1    
    78   40   42 1    
    79   40  106 1    
    80   41  107 1    
    81   41  108 1    
    82   41  109 1    
    83   42   43 2    
    84   42   44 am   BACKBONE|DICT|INTERRES
    85   44   45 1    
    86   44  110 1    
    87   45   46 1    
    88   45   47 1    
    89   45  111 1    
    90   46  112 1    
    91   46  113 1    
    92   46  114 1    
    93   47   48 2    
    94   47   49 am   BACKBONE|DICT|INTERRES
    95   49   50 1    
    96   49  115 1    
    97   50   51 1    
    98   50   52 1    
    99   50  116 1    
   100   51  117 1    
   101   51  118 1    
   102   51  119 1    
   103   52   53 2    
   104   52   54 am   BACKBONE|DICT|INTERRES
   105   54   55 1    
   106   54  120 1    
   107   55   56 1    
   108   55   57 1    
   109   55  121 1    
   110   56  122 1    
   111   56  123 1    
   112   56  124 1    
   113   57   58 2    
   114   57   59 am   BACKBONE|DICT|INTERRES
   115   59   60 1    
   116   59  125 1    
   117   60   61 1    
   118   60   62 1    
   119   60  126 1    
   120   61  127 1    
   121   61  128 1    
   122   61  129 1    
   123   62   63 2    
   124   62   64 am   BACKBONE|DICT|INTERRES
   125   64   65 1    
   126   64  130 1    
   127   65   66 1    
   128   65   69 1    
   129   65  131 1    
   130   66   67 am   BACKBONE|DICT|INTERRES
   131   66   68 2    
   132   67  132 1    
   133   67  133 1    
   134   69   70 1    
   135   69  134 1    
   136   69  135 1    
   137   70   71 1    
   138   71  136 1    
   139   71  137 1    
@<TRIPOS>SUBSTRUCTURE
     1 UNK         1 GROUP             0       ****    0 ROOT    
