@<TRIPOS>MOLECULE
3R137
137   139    1
SMALL
USER_CHARGES


@<TRIPOS>ATOM
      1 CA         24.7611   -5.5650   -5.3416 C.3       0 UNK        -0.2020 
      2 C          25.1599   -4.9615   -4.0038 C.2       0 UNK         0.4855 
      3 O          24.3052   -4.4441   -3.2838 O.2       0 UNK        -0.5197 
      4 N          26.4561   -5.0110   -3.6701 N.am      1 UNK        -0.4892 
      5 CA         27.0445   -4.4457   -2.4510 C.3       1 UNK         0.0835 
      6 C6         28.5359   -4.8460   -2.3342 C.3       12 UNK        -0.0855 
      7 S7         29.2379   -4.5202   -0.6809 S.3       12 UNK        -0.2931 
      8 C8         31.0336   -4.5401   -1.0409 C.3       12 UNK         0.0378 
      9 C9         31.5627   -3.4065   -1.9263 C.ar      12 UNK        -0.0802 
     10 C10        32.8694   -3.4972   -2.4194 C.ar      12 UNK        -0.0944 
     11 C11        33.3931   -2.4986   -3.2468 C.ar      12 UNK        -0.0787 
     12 C12        32.6070   -1.3921   -3.5733 C.ar      12 UNK        -0.0862 
     13 C13        31.3010   -1.2821   -3.0949 C.ar      12 UNK        -0.0733 
     14 C14        30.7905   -2.2888   -2.2690 C.ar      12 UNK        -0.0832 
     15 C15        30.4316   -0.1167   -3.5499 C.3       12 UNK         0.0240 
     16 S16        29.3066    0.5008   -2.2500 S.3       12 UNK        -0.2522 
     17 C17        28.2485    1.7414   -3.0736 C.3       12 UNK        -0.0967 
     18 CA         28.0442    1.6125   -4.6061 C.3       5 UNK         0.0660 
     19 N          27.5158    0.3090   -5.0307 N.am      5 UNK        -0.4015 
     20 C          27.4186   -0.0814   -6.3124 C.2       4 UNK         0.4946 
     21 O          27.8231    0.5867   -7.2616 O.2       4 UNK        -0.5353 
     22 CA         26.6971   -1.4056   -6.6023 C.3       4 UNK         0.0277 
     23 CB         27.6723   -2.5942   -6.5644 C.3       4 UNK        -0.1981 
     24 N          25.5761   -1.6171   -5.6849 N.am      4 UNK        -0.4209 
     25 C          24.4361   -0.9086   -5.7336 C.2       3 UNK         0.4942 
     26 O          24.1864   -0.0820   -6.6100 O.2       3 UNK        -0.5208 
     27 CA         23.4289   -1.1054   -4.5882 C.3       3 UNK         0.0250 
     28 CB         22.3984   -2.1886   -4.9415 C.3       3 UNK        -0.1990 
     29 N          24.0847   -1.4202   -3.3157 N.am      3 UNK        -0.4232 
     30 C          24.8175   -0.5315   -2.6257 C.2       2 UNK         0.4993 
     31 O          24.9535    0.6433   -2.9698 O.2       2 UNK        -0.5286 
     32 CA         25.5721   -1.0392   -1.3823 C.3       2 UNK         0.0209 
     33 CB         24.7189   -0.8456   -0.1194 C.3       2 UNK        -0.1931 
     34 N          25.9952   -2.4409   -1.4785 N.am      2 UNK        -0.4546 
     35 C          26.8276   -2.9166   -2.4151 C.2       1 UNK         0.5154 
     36 O          27.3500   -2.2068   -3.2764 O.2       1 UNK        -0.5181 
     37 C          27.1510    2.7612   -5.1126 C.2       5 UNK         0.5014 
     38 O          27.6735    3.7340   -5.6568 O.2       5 UNK        -0.5248 
     39 N          25.8259    2.6124   -4.9568 N.am      6 UNK        -0.4434 
     40 CA         24.8154    3.5554   -5.4463 C.3       6 UNK         0.0363 
     41 CB         23.4270    3.1291   -4.9440 C.3       6 UNK        -0.1936 
     42 C          24.8174    3.7062   -6.9786 C.2       6 UNK         0.5081 
     43 O          24.6740    4.8230   -7.4766 O.2       6 UNK        -0.5248 
     44 N          25.0055    2.5903   -7.6964 N.am      7 UNK        -0.4718 
     45 CA         25.1419    2.5525   -9.1558 C.3       7 UNK         0.0273 
     46 CB         24.8903    1.1143   -9.6385 C.3       7 UNK        -0.1935 
     47 C          26.5091    3.0467   -9.6680 C.2       7 UNK         0.5018 
     48 O          26.6260    3.3248  -10.8622 O.2       7 UNK        -0.5186 
     49 N          27.5115    3.1136   -8.7777 N.am      8 UNK        -0.4240 
     50 CA         28.9362    3.3545   -9.0414 C.3       8 UNK         0.0235 
     51 CB         29.1735    4.7896   -9.5578 C.3       8 UNK        -0.2000 
     52 C          29.5441    2.2659   -9.9502 C.2       8 UNK         0.4941 
     53 O          30.2806    2.5773  -10.8890 O.2       8 UNK        -0.5273 
     54 N          29.1931    1.0075   -9.6633 N.am      9 UNK        -0.4262 
     55 CA         29.5852   -0.1810  -10.4144 C.3       9 UNK         0.0264 
     56 CB         28.3595   -1.1046  -10.5228 C.3       9 UNK        -0.1955 
     57 C          30.7437   -0.9121   -9.7208 C.2       9 UNK         0.5031 
     58 O          30.9554   -0.7439   -8.5157 O.2       9 UNK        -0.5390 
     59 N          31.4458   -1.7477  -10.5007 N.am      10 UNK        -0.4204 
     60 CA         32.5647   -2.6058  -10.0932 C.3       10 UNK         0.0237 
     61 CB         32.0496   -3.7727   -9.2162 C.3       10 UNK        -0.1985 
     62 C          33.7095   -1.7888   -9.4601 C.2       10 UNK         0.4970 
     63 O          34.1692   -0.8253  -10.0760 O.2       10 UNK        -0.4914 
     64 N          34.1406   -2.1776   -8.2561 N.am      11 UNK        -0.4285 
     65 CA         35.1155   -1.4598   -7.4243 C.3       11 UNK         0.1007 
     66 C          34.5592   -0.1879   -6.7146 C.2       11 UNK         0.5703 
     67 N          33.2888    0.1742   -6.8616 N.am      11 UNK        -0.7361 
     68 O          35.3056    0.4997   -6.0223 O.2       11 UNK        -0.4986 
     69 C69        35.8512   -2.4265   -6.4533 C.3       12 UNK        -0.0947 
     70 S70        34.7353   -3.4585   -5.4385 S.3       12 UNK        -0.2240 
     71 C71        34.7931   -2.6224   -3.8235 C.3       12 UNK         0.0194 
     72 H72        24.5160   -4.7766   -6.0524 H         1 UNK         0.0906 
     73 H73        25.5600   -6.1712   -5.7682 H         1 UNK         0.0906 
     74 H74        23.8844   -6.2008   -5.2205 H         1 UNK         0.0906 
     75 H75        27.1119   -5.4314   -4.3131 H         1 UNK         0.3140 
     76 H76        26.5118   -4.8910   -1.6077 H         1 UNK         0.1085 
     77 H77        29.1279   -4.3503   -3.1056 H         1 UNK         0.0836 
     78 H78        28.6466   -5.9159   -2.5185 H         1 UNK         0.0836 
     79 H79        31.2795   -5.4993   -1.4994 H         1 UNK         0.0731 
     80 H80        31.5686   -4.5079   -0.0909 H         1 UNK         0.0731 
     81 H81        33.4772   -4.3576   -2.1736 H         1 UNK         0.1312 
     82 H82        33.0056   -0.6284   -4.2255 H         1 UNK         0.1406 
     83 H83        29.7745   -2.2006   -1.9149 H         1 UNK         0.1631 
     84 H84        29.8691   -0.4756   -4.4087 H         1 UNK         0.0717 
     85 H85        31.0499    0.7125   -3.8973 H         1 UNK         0.0717 
     86 H86        27.2875    1.7313   -2.5577 H         1 UNK         0.0934 
     87 H87        28.6846    2.7168   -2.8478 H         1 UNK         0.0934 
     88 H88        29.0157    1.7393   -5.0883 H         1 UNK         0.0739 
     89 H89        27.2258   -0.3314   -4.3004 H         1 UNK         0.3093 
     90 H90        26.2926   -1.3450   -7.6148 H         1 UNK         0.0818 
     91 H91        27.1640   -3.5335   -6.7814 H         1 UNK         0.0819 
     92 H92        28.4579   -2.4702   -7.3112 H         1 UNK         0.0819 
     93 H93        28.1695   -2.6940   -5.6006 H         1 UNK         0.0819 
     94 H94        25.7478   -2.2170   -4.8895 H         1 UNK         0.3041 
     95 H95        22.8890   -0.1646   -4.4613 H         1 UNK         0.0784 
     96 H96        21.8470   -1.9177   -5.8429 H         1 UNK         0.0793 
     97 H97        22.8666   -3.1540   -5.1284 H         1 UNK         0.0793 
     98 H98        21.6686   -2.3186   -4.1423 H         1 UNK         0.0793 
     99 H99        24.0479   -2.3859   -3.0042 H         1 UNK         0.3024 
    100 H100       26.4736   -0.4304   -1.2838 H         1 UNK         0.1171 
    101 H101       25.2757   -1.1092    0.7801 H         1 UNK         0.0786 
    102 H102       24.4106    0.1956   -0.0134 H         1 UNK         0.0786 
    103 H103       23.8133   -1.4530   -0.1458 H         1 UNK         0.0786 
    104 H104       25.5751   -3.0869   -0.8254 H         1 UNK         0.2977 
    105 H105       25.4855    1.8088   -4.4337 H         1 UNK         0.3127 
    106 H106       25.0465    4.5333   -5.0185 H         1 UNK         0.0770 
    107 H107       23.1341    2.1582   -5.3440 H         1 UNK         0.0814 
    108 H108       22.6656    3.8490   -5.2468 H         1 UNK         0.0814 
    109 H109       23.3998    3.0650   -3.8560 H         1 UNK         0.0814 
    110 H110       25.0337    1.6975   -7.2135 H         1 UNK         0.2983 
    111 H111       24.3774    3.1997   -9.5913 H         1 UNK         0.0947 
    112 H112       25.6312    0.4222   -9.2369 H         1 UNK         0.0806 
    113 H113       24.9402    1.0504  -10.7263 H         1 UNK         0.0806 
    114 H114       23.9039    0.7606   -9.3378 H         1 UNK         0.0806 
    115 H115       27.2976    2.8323   -7.8287 H         1 UNK         0.3000 
    116 H116       29.4405    3.2622   -8.0781 H         1 UNK         0.0850 
    117 H117       28.7412    5.5285   -8.8831 H         1 UNK         0.0810 
    118 H118       28.7410    4.9431  -10.5467 H         1 UNK         0.0810 
    119 H119       30.2400    5.0041   -9.6336 H         1 UNK         0.0810 
    120 H120       28.6623    0.8387   -8.8076 H         1 UNK         0.3040 
    121 H121       29.9009    0.1025  -11.4207 H         1 UNK         0.0766 
    122 H122       28.5886   -2.0029  -11.0973 H         1 UNK         0.0812 
    123 H123       27.5310   -0.6032  -11.0236 H         1 UNK         0.0812 
    124 H124       28.0097   -1.4249   -9.5412 H         1 UNK         0.0812 
    125 H125       31.2097   -1.7870  -11.4827 H         1 UNK         0.3205 
    126 H126       32.9740   -3.0367  -11.0082 H         1 UNK         0.0754 
    127 H127       32.8450   -4.4851   -8.9927 H         1 UNK         0.0769 
    128 H128       31.2660   -4.3289   -9.7310 H         1 UNK         0.0769 
    129 H129       31.6333   -3.4253   -8.2695 H         1 UNK         0.0769 
    130 H130       33.6923   -2.9644   -7.8101 H         1 UNK         0.2981 
    131 H131       35.8808   -1.0743   -8.1005 H         1 UNK         0.0541 
    132 H132       32.9702    1.0145   -6.4089 H         1 UNK         0.3459 
    133 H133       32.6455   -0.3507   -7.4446 H         1 UNK         0.3459 
    134 H134       36.4650   -3.1115   -7.0401 H         1 UNK         0.0612 
    135 H135       36.5570   -1.8909   -5.8162 H         1 UNK         0.0612 
    136 H136       35.4388   -3.1863   -3.1488 H         1 UNK         0.0624 
    137 H137       35.2375   -1.6306   -3.9187 H         1 UNK         0.0624 
@<TRIPOS>BOND
     1    1    2 1    
     2    1   72 1    
     3    1   73 1    
     4    1   74 1    
     5    2    3 2    
     6    2    4 am   BACKBONE|DICT|INTERRES
     7    4    5 1    
     8    4   75 1    
     9    5    6 1    
    10    5   35 1    
    11    5   76 1    
    12    6    7 1    
    13    6   77 1    
    14    6   78 1    
    15    7    8 1    
    16    8    9 1    
    17    8   79 1    
    18    8   80 1    
    19    9   10 ar   
    20    9   14 ar   
    21   10   11 ar   
    22   10   81 1    
    23   11   12 ar   
    24   11   71 1    
    25   12   13 ar   
    26   12   82 1    
    27   13   14 ar   
    28   13   15 1    
    29   14   83 1    
    30   15   16 1    
    31   15   84 1    
    32   15   85 1    
    33   16   17 1    
    34   17   18 1    
    35   17   86 1    
    36   17   87 1    
    37   18   19 1    
    38   18   37 1    
    39   18   88 1    
    40   19   20 am   BACKBONE|DICT|INTERRES
    41   19   89 1    
    42   20   21 2    
    43   20   22 1    
    44   22   23 1    
    45   22   24 1    
    46   22   90 1    
    47   23   91 1    
    48   23   92 1    
    49   23   93 1    
    50   24   25 am   BACKBONE|DICT|INTERRES
    51   24   94 1    
    52   25   26 2    
    53   25   27 1    
    54   27   28 1    
    55   27   29 1    
    56   27   95 1    
    57   28   96 1    
    58   28   97 1    
    59   28   98 1    
    60   29   30 am   BACKBONE|DICT|INTERRES
    61   29   99 1    
    62   30   31 2    
    63   30   32 1    
    64   32   33 1    
    65   32   34 1    
    66   32  100 1    
    67   33  101 1    
    68   33  102 1    
    69   33  103 1    
    70   34   35 am   BACKBONE|DICT|INTERRES
    71   34  104 1    
    72   35   36 2    
    73   37   38 2    
    74   37   39 am   BACKBONE|DICT|INTERRES
    75   39   40 1    
    76   39  105 1    
    77   40   41 1    
    78   40   42 1    
    79   40  106 1    
    80   41  107 1    
    81   41  108 1    
    82   41  109 1    
    83   42   43 2    
    84   42   44 am   BACKBONE|DICT|INTERRES
    85   44   45 1    
    86   44  110 1    
    87   45   46 1    
    88   45   47 1    
    89   45  111 1    
    90   46  112 1    
    91   46  113 1    
    92   46  114 1    
    93   47   48 2    
    94   47   49 am   BACKBONE|DICT|INTERRES
    95   49   50 1    
    96   49  115 1    
    97   50   51 1    
    98   50   52 1    
    99   50  116 1    
   100   51  117 1    
   101   51  118 1    
   102   51  119 1    
   103   52   53 2    
   104   52   54 am   BACKBONE|DICT|INTERRES
   105   54   55 1    
   106   54  120 1    
   107   55   56 1    
   108   55   57 1    
   109   55  121 1    
   110   56  122 1    
   111   56  123 1    
   112   56  124 1    
   113   57   58 2    
   114   57   59 am   BACKBONE|DICT|INTERRES
   115   59   60 1    
   116   59  125 1    
   117   60   61 1    
   118   60   62 1    
   119   60  126 1    
   120   61  127 1    
   121   61  128 1    
   122   61  129 1    
   123   62   63 2    
   124   62   64 am   BACKBONE|DICT|INTERRES
   125   64   65 1    
   126   64  130 1    
   127   65   66 1    
   128   65   69 1    
   129   65  131 1    
   130   66   67 am   BACKBONE|DICT|INTERRES
   131   66   68 2    
   132   67  132 1    
   133   67  133 1    
   134   69   70 1    
   135   69  134 1    
   136   69  135 1    
   137   70   71 1    
   138   71  136 1    
   139   71  137 1    
@<TRIPOS>SUBSTRUCTURE
     1 UNK         1 GROUP             0       ****    0 ROOT    
