@<TRIPOS>MOLECULE
3R137
137   139    1
SMALL
USER_CHARGES


@<TRIPOS>ATOM
      1 CA         25.9686   -5.0494   -1.8515 C.3       0 UNK        -0.2020 
      2 C          26.7938   -4.1090   -0.9872 C.2       0 UNK         0.4855 
      3 O          26.3743   -3.7626    0.1170 O.2       0 UNK        -0.5197 
      4 N          27.9633   -3.6873   -1.4851 N.am      1 UNK        -0.4892 
      5 CA         28.8955   -2.7814   -0.7920 C.3       1 UNK         0.0835 
      6 C6         30.3649   -3.0204   -1.2203 C.3       12 UNK        -0.0855 
      7 S7         30.8934   -4.7410   -0.9014 S.3       12 UNK        -0.2931 
      8 C8         32.2671   -4.9508   -2.0875 C.3       12 UNK         0.0378 
      9 C9         31.8909   -4.7113   -3.5487 C.ar      12 UNK        -0.0802 
     10 C10        32.8290   -4.1267   -4.4055 C.ar      12 UNK        -0.0944 
     11 C11        32.5131   -3.8755   -5.7429 C.ar      12 UNK        -0.0787 
     12 C12        31.2399   -4.1947   -6.2215 C.ar      12 UNK        -0.0862 
     13 C13        30.2892   -4.7738   -5.3768 C.ar      12 UNK        -0.0733 
     14 C14        30.6309   -5.0595   -4.0521 C.ar      12 UNK        -0.0832 
     15 C15        28.8841   -5.0600   -5.8896 C.3       12 UNK         0.0240 
     16 S16        27.6139   -4.0750   -5.0250 S.3       12 UNK        -0.2522 
     17 C17        28.1679   -2.3617   -5.3201 C.3       12 UNK        -0.0967 
     18 CA         27.4594   -1.6924   -6.5196 C.3       5 UNK         0.0660 
     19 N          26.0030   -1.6358   -6.3548 N.am      5 UNK        -0.4015 
     20 C          25.1480   -1.3596   -7.3504 C.2       4 UNK         0.4946 
     21 O          25.4989   -1.1466   -8.5095 O.2       4 UNK        -0.5353 
     22 CA         23.6552   -1.2527   -6.9954 C.3       4 UNK         0.0277 
     23 CB         22.9918   -2.6382   -7.0399 C.3       4 UNK        -0.1981 
     24 N          23.4064   -0.6316   -5.6928 N.am      4 UNK        -0.4209 
     25 C          23.8012    0.5987   -5.3370 C.2       3 UNK         0.4942 
     26 O          24.3999    1.3681   -6.0881 O.2       3 UNK        -0.5208 
     27 CA         23.5360    1.0347   -3.8855 C.3       3 UNK         0.0250 
     28 CB         22.4455    0.2026   -3.1720 C.3       3 UNK        -0.1990 
     29 N          24.7658    1.0535   -3.0819 N.am      3 UNK        -0.4232 
     30 C          25.6184    0.0360   -2.8860 C.2       2 UNK         0.4993 
     31 O          25.5303   -1.0567   -3.4579 O.2       2 UNK        -0.5286 
     32 CA         26.7549    0.2685   -1.8760 C.3       2 UNK         0.0209 
     33 CB         26.2223    0.8493   -0.5455 C.3       2 UNK        -0.1931 
     34 N          27.3990   -1.0224   -1.6520 N.am      2 UNK        -0.4546 
     35 C          28.4972   -1.2934   -0.9380 C.2       1 UNK         0.5154 
     36 O          29.1842   -0.4258   -0.3977 O.2       1 UNK        -0.5181 
     37 C          28.0529   -0.2920   -6.7682 C.2       5 UNK         0.5014 
     38 O          28.9918   -0.1543   -7.5557 O.2       5 UNK        -0.5248 
     39 N          27.4955    0.7262   -6.0952 N.am      6 UNK        -0.4434 
     40 CA         27.8815    2.1263   -6.2636 C.3       6 UNK         0.0363 
     41 CB         27.3110    2.9864   -5.1255 C.3       6 UNK        -0.1936 
     42 C          27.4659    2.6604   -7.6412 C.2       6 UNK         0.5081 
     43 O          28.2846    3.2789   -8.3205 O.2       6 UNK        -0.5248 
     44 N          26.2286    2.3531   -8.0531 N.am      7 UNK        -0.4718 
     45 CA         25.6966    2.6488   -9.3849 C.3       7 UNK         0.0273 
     46 CB         24.2094    2.2648   -9.4373 C.3       7 UNK        -0.1935 
     47 C          26.4785    1.9548  -10.5145 C.2       7 UNK         0.5018 
     48 O          26.6701    2.5607  -11.5695 O.2       7 UNK        -0.5186 
     49 N          26.9214    0.7124  -10.2713 N.am      8 UNK        -0.4240 
     50 CA         27.7394   -0.0709  -11.1941 C.3       8 UNK         0.0235 
     51 CB         27.7892   -1.5424  -10.7490 C.3       8 UNK        -0.2000 
     52 C          29.1572    0.4925  -11.3734 C.2       8 UNK         0.4941 
     53 O          29.5534    0.7333  -12.5154 O.2       8 UNK        -0.5273 
     54 N          29.9107    0.6556  -10.2736 N.am      9 UNK        -0.4262 
     55 CA         31.3486    0.9427  -10.3454 C.3       9 UNK         0.0264 
     56 CB         32.1189   -0.3647  -10.6391 C.3       9 UNK        -0.1955 
     57 C          31.9116    1.6860   -9.1220 C.2       9 UNK         0.5031 
     58 O          33.1065    1.5557   -8.8538 O.2       9 UNK        -0.5390 
     59 N          31.0839    2.4500   -8.3919 N.am      10 UNK        -0.4204 
     60 CA         31.4213    3.2861   -7.2207 C.3       10 UNK         0.0237 
     61 CB         32.4458    4.3791   -7.5867 C.3       10 UNK        -0.1985 
     62 C          31.8589    2.5283   -5.9478 C.2       10 UNK         0.4970 
     63 O          31.6401    3.0415   -4.8507 O.2       10 UNK        -0.4914 
     64 N          32.4465    1.3382   -6.1004 N.am      11 UNK        -0.4285 
     65 CA         32.9156    0.4340   -5.0388 C.3       11 UNK         0.1007 
     66 C          31.8205   -0.1599   -4.1061 C.2       11 UNK         0.5703 
     67 N          30.5380   -0.0419   -4.4231 N.am      11 UNK        -0.7361 
     68 O          32.1447   -0.7070   -3.0558 O.2       11 UNK        -0.4986 
     69 C69        33.8619   -0.6577   -5.6103 C.3       12 UNK        -0.0947 
     70 S70        33.1847   -1.5355   -7.0643 S.3       12 UNK        -0.2240 
     71 C71        33.5468   -3.2740   -6.6812 C.3       12 UNK         0.0194 
     72 H72        26.5902   -5.5872   -2.5669 H         1 UNK         0.0906 
     73 H73        25.4596   -5.7870   -1.2315 H         1 UNK         0.0906 
     74 H74        25.2155   -4.4874   -2.4038 H         1 UNK         0.0906 
     75 H75        28.2517   -3.9938   -2.4039 H         1 UNK         0.3140 
     76 H76        28.8374   -2.9923    0.2783 H         1 UNK         0.1085 
     77 H77        30.4897   -2.7791   -2.2769 H         1 UNK         0.0836 
     78 H78        31.0425   -2.3580   -0.6778 H         1 UNK         0.0836 
     79 H79        33.0721   -4.2761   -1.7914 H         1 UNK         0.0731 
     80 H80        32.6605   -5.9634   -1.9914 H         1 UNK         0.0731 
     81 H81        33.8093   -3.8657   -4.0306 H         1 UNK         0.1312 
     82 H82        30.9889   -3.9772   -7.2509 H         1 UNK         0.1406 
     83 H83        29.8979   -5.5206   -3.4050 H         1 UNK         0.1631 
     84 H84        28.6624   -6.1196   -5.7558 H         1 UNK         0.0717 
     85 H85        28.8117   -4.8631   -6.9603 H         1 UNK         0.0717 
     86 H86        29.2491   -2.3459   -5.4617 H         1 UNK         0.0934 
     87 H87        27.9847   -1.7962   -4.4059 H         1 UNK         0.0934 
     88 H88        27.6705   -2.2921   -7.4075 H         1 UNK         0.0739 
     89 H89        25.6488   -1.7568   -5.4111 H         1 UNK         0.3093 
     90 H90        23.1834   -0.6230   -7.7524 H         1 UNK         0.0818 
     91 H91        21.9152   -2.5689   -6.8834 H         1 UNK         0.0819 
     92 H92        23.1461   -3.1124   -8.0104 H         1 UNK         0.0819 
     93 H93        23.4005   -3.3076   -6.2818 H         1 UNK         0.0819 
     94 H94        22.9545   -1.2031   -4.9939 H         1 UNK         0.3041 
     95 H95        23.1808    2.0649   -3.9408 H         1 UNK         0.0784 
     96 H96        21.5183    0.1886   -3.7469 H         1 UNK         0.0793 
     97 H97        22.7516   -0.8307   -3.0043 H         1 UNK         0.0793 
     98 H98        22.2072    0.6313   -2.1984 H         1 UNK         0.0793 
     99 H99        24.9447    1.9215   -2.5965 H         1 UNK         0.3024 
    100 H100       27.4818    0.9521   -2.3184 H         1 UNK         0.1171 
    101 H101       27.0176    0.9802    0.1877 H         1 UNK         0.0786 
    102 H102       25.4665    0.2007   -0.1004 H         1 UNK         0.0786 
    103 H103       25.7712    1.8319   -0.6854 H         1 UNK         0.0786 
    104 H104       26.9062   -1.7914   -2.0922 H         1 UNK         0.2977 
    105 H105       26.6776    0.5424   -5.5322 H         1 UNK         0.3127 
    106 H106       28.9673    2.1764   -6.1993 H         1 UNK         0.0770 
    107 H107       26.2216    2.9728   -5.1040 H         1 UNK         0.0814 
    108 H108       27.6184    4.0270   -5.2383 H         1 UNK         0.0814 
    109 H109       27.6737    2.6496   -4.1549 H         1 UNK         0.0814 
    110 H110       25.6031    1.8796   -7.4035 H         1 UNK         0.2983 
    111 H111       25.7798    3.7265   -9.5412 H         1 UNK         0.0947 
    112 H112       23.7760    2.5126  -10.4071 H         1 UNK         0.0806 
    113 H113       23.6351    2.7967   -8.6785 H         1 UNK         0.0806 
    114 H114       24.0642    1.1960   -9.2776 H         1 UNK         0.0806 
    115 H115       26.6341    0.2523   -9.4133 H         1 UNK         0.3000 
    116 H116       27.2508   -0.0407  -12.1705 H         1 UNK         0.0850 
    117 H117       28.4047   -2.1352  -11.4270 H         1 UNK         0.0810 
    118 H118       26.7944   -1.9879  -10.7453 H         1 UNK         0.0810 
    119 H119       28.2083   -1.6520   -9.7490 H         1 UNK         0.0810 
    120 H120       29.5319    0.4173   -9.3586 H         1 UNK         0.3040 
    121 H121       31.5255    1.6262  -11.1785 H         1 UNK         0.0766 
    122 H122       33.1912   -0.1883  -10.7316 H         1 UNK         0.0812 
    123 H123       31.9740   -1.0969   -9.8445 H         1 UNK         0.0812 
    124 H124       31.7949   -0.8202  -11.5747 H         1 UNK         0.0812 
    125 H125       30.1093    2.5118   -8.6746 H         1 UNK         0.3205 
    126 H126       30.4995    3.8049   -6.9570 H         1 UNK         0.0754 
    127 H127       32.5909    5.0694   -6.7546 H         1 UNK         0.0769 
    128 H128       32.1091    4.9679   -8.4399 H         1 UNK         0.0769 
    129 H129       33.4229    3.9613   -7.8308 H         1 UNK         0.0769 
    130 H130       32.6392    1.0342   -7.0496 H         1 UNK         0.2981 
    131 H131       33.5245    1.0526   -4.3772 H         1 UNK         0.0541 
    132 H132       30.2732    0.3926   -5.2916 H         1 UNK         0.3459 
    133 H133       29.8485   -0.3883   -3.7800 H         1 UNK         0.3459 
    134 H134       34.1454   -1.3735   -4.8369 H         1 UNK         0.0612 
    135 H135       34.7948   -0.1901   -5.9281 H         1 UNK         0.0612 
    136 H136       33.5522   -3.8402   -7.6136 H         1 UNK         0.0624 
    137 H137       34.5534   -3.3588   -6.2687 H         1 UNK         0.0624 
@<TRIPOS>BOND
     1    1    2 1    
     2    1   72 1    
     3    1   73 1    
     4    1   74 1    
     5    2    3 2    
     6    2    4 am   BACKBONE|DICT|INTERRES
     7    4    5 1    
     8    4   75 1    
     9    5    6 1    
    10    5   35 1    
    11    5   76 1    
    12    6    7 1    
    13    6   77 1    
    14    6   78 1    
    15    7    8 1    
    16    8    9 1    
    17    8   79 1    
    18    8   80 1    
    19    9   10 ar   
    20    9   14 ar   
    21   10   11 ar   
    22   10   81 1    
    23   11   12 ar   
    24   11   71 1    
    25   12   13 ar   
    26   12   82 1    
    27   13   14 ar   
    28   13   15 1    
    29   14   83 1    
    30   15   16 1    
    31   15   84 1    
    32   15   85 1    
    33   16   17 1    
    34   17   18 1    
    35   17   86 1    
    36   17   87 1    
    37   18   19 1    
    38   18   37 1    
    39   18   88 1    
    40   19   20 am   BACKBONE|DICT|INTERRES
    41   19   89 1    
    42   20   21 2    
    43   20   22 1    
    44   22   23 1    
    45   22   24 1    
    46   22   90 1    
    47   23   91 1    
    48   23   92 1    
    49   23   93 1    
    50   24   25 am   BACKBONE|DICT|INTERRES
    51   24   94 1    
    52   25   26 2    
    53   25   27 1    
    54   27   28 1    
    55   27   29 1    
    56   27   95 1    
    57   28   96 1    
    58   28   97 1    
    59   28   98 1    
    60   29   30 am   BACKBONE|DICT|INTERRES
    61   29   99 1    
    62   30   31 2    
    63   30   32 1    
    64   32   33 1    
    65   32   34 1    
    66   32  100 1    
    67   33  101 1    
    68   33  102 1    
    69   33  103 1    
    70   34   35 am   BACKBONE|DICT|INTERRES
    71   34  104 1    
    72   35   36 2    
    73   37   38 2    
    74   37   39 am   BACKBONE|DICT|INTERRES
    75   39   40 1    
    76   39  105 1    
    77   40   41 1    
    78   40   42 1    
    79   40  106 1    
    80   41  107 1    
    81   41  108 1    
    82   41  109 1    
    83   42   43 2    
    84   42   44 am   BACKBONE|DICT|INTERRES
    85   44   45 1    
    86   44  110 1    
    87   45   46 1    
    88   45   47 1    
    89   45  111 1    
    90   46  112 1    
    91   46  113 1    
    92   46  114 1    
    93   47   48 2    
    94   47   49 am   BACKBONE|DICT|INTERRES
    95   49   50 1    
    96   49  115 1    
    97   50   51 1    
    98   50   52 1    
    99   50  116 1    
   100   51  117 1    
   101   51  118 1    
   102   51  119 1    
   103   52   53 2    
   104   52   54 am   BACKBONE|DICT|INTERRES
   105   54   55 1    
   106   54  120 1    
   107   55   56 1    
   108   55   57 1    
   109   55  121 1    
   110   56  122 1    
   111   56  123 1    
   112   56  124 1    
   113   57   58 2    
   114   57   59 am   BACKBONE|DICT|INTERRES
   115   59   60 1    
   116   59  125 1    
   117   60   61 1    
   118   60   62 1    
   119   60  126 1    
   120   61  127 1    
   121   61  128 1    
   122   61  129 1    
   123   62   63 2    
   124   62   64 am   BACKBONE|DICT|INTERRES
   125   64   65 1    
   126   64  130 1    
   127   65   66 1    
   128   65   69 1    
   129   65  131 1    
   130   66   67 am   BACKBONE|DICT|INTERRES
   131   66   68 2    
   132   67  132 1    
   133   67  133 1    
   134   69   70 1    
   135   69  134 1    
   136   69  135 1    
   137   70   71 1    
   138   71  136 1    
   139   71  137 1    
@<TRIPOS>SUBSTRUCTURE
     1 UNK         1 GROUP             0       ****    0 ROOT    
