@<TRIPOS>MOLECULE
3R137
137   139    1
SMALL
USER_CHARGES


@<TRIPOS>ATOM
      1 CA         22.9135   -2.0479   -6.2590 C.3       0 UNK        -0.2020 
      2 C          23.2831   -3.3883   -5.6426 C.2       0 UNK         0.4855 
      3 O          22.4635   -4.3074   -5.6384 O.2       0 UNK        -0.5197 
      4 N          24.5044   -3.5123   -5.1121 N.am      1 UNK        -0.4892 
      5 CA         25.0377   -4.7252   -4.4827 C.3       1 UNK         0.0835 
      6 C6         26.5340   -4.9643   -4.8245 C.3       12 UNK        -0.0855 
      7 S7         27.6200   -3.5087   -4.6351 S.3       12 UNK        -0.2931 
      8 C8         28.8759   -4.1400   -3.4852 C.3       12 UNK         0.0378 
      9 C9         29.9785   -3.1114   -3.3071 C.ar      12 UNK        -0.0802 
     10 C10        31.0586   -3.0791   -4.1953 C.ar      12 UNK        -0.0944 
     11 C11        32.0504   -2.1026   -4.0683 C.ar      12 UNK        -0.0787 
     12 C12        31.9558   -1.1591   -3.0420 C.ar      12 UNK        -0.0862 
     13 C13        30.8666   -1.1638   -2.1675 C.ar      12 UNK        -0.0733 
     14 C14        29.8957   -2.1626   -2.2839 C.ar      12 UNK        -0.0832 
     15 C15        30.7274   -0.0574   -1.1305 C.3       12 UNK         0.0240 
     16 S16        29.2079    0.9363   -1.3379 S.3       12 UNK        -0.2522 
     17 C17        29.1074    1.2427   -3.1414 C.3       12 UNK        -0.0967 
     18 CA         27.9553    0.4302   -3.7879 C.3       5 UNK         0.0660 
     19 N          26.6574    0.7604   -3.1930 N.am      5 UNK        -0.4015 
     20 C          25.5177    0.0885   -3.3931 C.2       4 UNK         0.4946 
     21 O          25.4115   -0.9037   -4.1170 O.2       4 UNK        -0.5353 
     22 CA         24.2885    0.5910   -2.6208 C.3       4 UNK         0.0277 
     23 CB         23.0551    0.7023   -3.5324 C.3       4 UNK        -0.1981 
     24 N          23.9865   -0.3180   -1.5183 N.am      4 UNK        -0.4209 
     25 C          24.6977   -0.4376   -0.3920 C.2       3 UNK         0.4942 
     26 O          25.6449    0.2955   -0.1072 O.2       3 UNK        -0.5208 
     27 CA         24.2996   -1.5567    0.5898 C.3       3 UNK         0.0250 
     28 CB         23.1825   -1.0852    1.5418 C.3       3 UNK        -0.1990 
     29 N          23.9687   -2.8496   -0.0333 N.am      3 UNK        -0.4232 
     30 C          22.9342   -3.1635   -0.8259 C.2       2 UNK         0.4993 
     31 O          22.0848   -2.3562   -1.2093 O.2       2 UNK        -0.5286 
     32 CA         22.8641   -4.6169   -1.3155 C.3       2 UNK         0.0209 
     33 CB         21.4193   -5.1479   -1.3179 C.3       2 UNK        -0.1931 
     34 N          23.4059   -4.7029   -2.6688 N.am      2 UNK        -0.4546 
     35 C          24.7092   -4.7240   -2.9759 C.2       1 UNK         0.5154 
     36 O          25.6038   -4.7373   -2.1278 O.2       1 UNK        -0.5181 
     37 C          27.9268    0.5964   -5.3199 C.2       5 UNK         0.5014 
     38 O          27.3145    1.5428   -5.8238 O.2       5 UNK        -0.5248 
     39 N          28.5759   -0.3361   -6.0284 N.am      6 UNK        -0.4434 
     40 CA         28.5476   -0.4665   -7.4852 C.3       6 UNK         0.0363 
     41 CB         28.9996   -1.8871   -7.8678 C.3       6 UNK        -0.1936 
     42 C          29.3681    0.6171   -8.2066 C.2       6 UNK         0.5081 
     43 O          30.4531    0.3400   -8.7206 O.2       6 UNK        -0.5248 
     44 N          28.8240    1.8378   -8.2777 N.am      7 UNK        -0.4718 
     45 CA         29.3914    2.9688   -9.0243 C.3       7 UNK         0.0273 
     46 CB         28.4955    4.2035   -8.8458 C.3       7 UNK        -0.1935 
     47 C          29.6131    2.6672  -10.5196 C.2       7 UNK         0.5018 
     48 O          30.6010    3.1279  -11.0906 O.2       7 UNK        -0.5186 
     49 N          28.7391    1.8325  -11.1016 N.am      8 UNK        -0.4240 
     50 CA         28.8570    1.2894  -12.4589 C.3       8 UNK         0.0235 
     51 CB         27.5559    0.5542  -12.8196 C.3       8 UNK        -0.2000 
     52 C          30.0716    0.3603  -12.6629 C.2       8 UNK         0.4941 
     53 O          30.5265    0.2186  -13.7981 O.2       8 UNK        -0.5273 
     54 N          30.5883   -0.2335  -11.5768 N.am      9 UNK        -0.4262 
     55 CA         31.8141   -1.0367  -11.5523 C.3       9 UNK         0.0264 
     56 CB         31.5942   -2.2585  -10.6417 C.3       9 UNK        -0.1955 
     57 C          33.0309   -0.2107  -11.0876 C.2       9 UNK         0.5031 
     58 O          34.0842   -0.7945  -10.8281 O.2       9 UNK        -0.5390 
     59 N          32.8715    1.1192  -10.9891 N.am      10 UNK        -0.4204 
     60 CA         33.8540    2.1130  -10.5490 C.3       10 UNK         0.0237 
     61 CB         35.0879    2.1393  -11.4783 C.3       10 UNK        -0.1985 
     62 C          34.2205    2.0108   -9.0556 C.2       10 UNK         0.4970 
     63 O          35.3196    2.4224   -8.6790 O.2       10 UNK        -0.4914 
     64 N          33.2959    1.5150   -8.2188 N.am      11 UNK        -0.4285 
     65 CA         33.4458    1.5071   -6.7524 C.3       11 UNK         0.1007 
     66 C          33.3210    2.9095   -6.0828 C.2       11 UNK         0.5703 
     67 N          32.8769    3.9502   -6.7790 N.am      11 UNK        -0.7361 
     68 O          33.6414    3.0563   -4.9059 O.2       11 UNK        -0.4986 
     69 C69        32.4902    0.4980   -6.0696 C.3       12 UNK        -0.0947 
     70 S70        32.7518   -1.2269   -6.6082 S.3       12 UNK        -0.2240 
     71 C71        33.2131   -2.0523   -5.0506 C.3       12 UNK         0.0194 
     72 H72        22.7093   -2.1698   -7.3223 H         1 UNK         0.0906 
     73 H73        22.0171   -1.6500   -5.7847 H         1 UNK         0.0906 
     74 H74        23.7124   -1.3147   -6.1506 H         1 UNK         0.0906 
     75 H75        25.0928   -2.6869   -5.0141 H         1 UNK         0.3140 
     76 H76        24.5063   -5.5904   -4.8863 H         1 UNK         0.1085 
     77 H77        26.6080   -5.2733   -5.8682 H         1 UNK         0.0836 
     78 H78        26.9275   -5.8058   -4.2511 H         1 UNK         0.0836 
     79 H79        29.2929   -5.0721   -3.8696 H         1 UNK         0.0731 
     80 H80        28.4095   -4.3747   -2.5269 H         1 UNK         0.0731 
     81 H81        31.1168   -3.8007   -4.9990 H         1 UNK         0.1312 
     82 H82        32.7174   -0.3981   -2.9420 H         1 UNK         0.1406 
     83 H83        29.0476   -2.1665   -1.6120 H         1 UNK         0.1631 
     84 H84        31.5847    0.6167   -1.1667 H         1 UNK         0.0717 
     85 H85        30.7278   -0.4989   -0.1331 H         1 UNK         0.0717 
     86 H86        28.9547    2.3120   -3.2994 H         1 UNK         0.0934 
     87 H87        30.0645    1.0082   -3.6104 H         1 UNK         0.0934 
     88 H88        28.1222   -0.6273   -3.5827 H         1 UNK         0.0739 
     89 H89        26.6565    1.5373   -2.5489 H         1 UNK         0.3093 
     90 H90        24.4996    1.5822   -2.2135 H         1 UNK         0.0818 
     91 H91        23.2668    1.3217   -4.4049 H         1 UNK         0.0819 
     92 H92        22.7330   -0.2747   -3.8925 H         1 UNK         0.0819 
     93 H93        22.2148    1.1558   -3.0064 H         1 UNK         0.0819 
     94 H94        23.2202   -0.9744   -1.6508 H         1 UNK         0.3041 
     95 H95        25.1823   -1.7516    1.2014 H         1 UNK         0.0784 
     96 H96        23.4821   -0.1810    2.0736 H         1 UNK         0.0793 
     97 H97        22.2598   -0.8544    1.0086 H         1 UNK         0.0793 
     98 H98        22.9557   -1.8419    2.2928 H         1 UNK         0.0793 
     99 H99        24.6507   -3.5782    0.1337 H         1 UNK         0.3024 
    100 H100       23.4540   -5.2490   -0.6472 H         1 UNK         0.1171 
    101 H101       20.7793   -4.5866   -2.0001 H         1 UNK         0.0786 
    102 H102       21.3837   -6.1965   -1.6140 H         1 UNK         0.0786 
    103 H103       20.9771   -5.0768   -0.3233 H         1 UNK         0.0786 
    104 H104       22.7436   -4.6422   -3.4330 H         1 UNK         0.2977 
    105 H105       29.0601   -1.0706   -5.5301 H         1 UNK         0.3127 
    106 H106       27.5118   -0.3584   -7.8141 H         1 UNK         0.0770 
    107 H107       28.9984   -2.0202   -8.9502 H         1 UNK         0.0814 
    108 H108       28.3312   -2.6413   -7.4532 H         1 UNK         0.0814 
    109 H109       30.0075   -2.1014   -7.5118 H         1 UNK         0.0814 
    110 H110       27.9788    2.0056   -7.7411 H         1 UNK         0.2983 
    111 H111       30.3685    3.1882   -8.5896 H         1 UNK         0.0947 
    112 H112       28.9083    5.0652   -9.3725 H         1 UNK         0.0806 
    113 H113       28.4071    4.4800   -7.7948 H         1 UNK         0.0806 
    114 H114       27.4904    4.0339   -9.2339 H         1 UNK         0.0806 
    115 H115       27.9601    1.5068  -10.5478 H         1 UNK         0.3000 
    116 H116       28.9766    2.1321  -13.1433 H         1 UNK         0.0850 
    117 H117       27.3709   -0.2905  -12.1546 H         1 UNK         0.0810 
    118 H118       27.5975    0.1638  -13.8376 H         1 UNK         0.0810 
    119 H119       26.6945    1.2204  -12.7665 H         1 UNK         0.0810 
    120 H120       30.1956   -0.0273  -10.6635 H         1 UNK         0.3040 
    121 H121       32.0383   -1.4025  -12.5563 H         1 UNK         0.0766 
    122 H122       30.7047   -2.8181  -10.9306 H         1 UNK         0.0812 
    123 H123       31.4872   -1.9674   -9.5964 H         1 UNK         0.0812 
    124 H124       32.4401   -2.9446  -10.6985 H         1 UNK         0.0812 
    125 H125       31.9608    1.5037  -11.2144 H         1 UNK         0.3205 
    126 H126       33.3565    3.0778  -10.6566 H         1 UNK         0.0754 
    127 H127       35.7268    2.9950  -11.2567 H         1 UNK         0.0769 
    128 H128       34.7947    2.2200  -12.5251 H         1 UNK         0.0769 
    129 H129       35.6994    1.2433  -11.3683 H         1 UNK         0.0769 
    130 H130       32.4207    1.1511   -8.5790 H         1 UNK         0.2981 
    131 H131       34.4624    1.1733   -6.5357 H         1 UNK         0.0541 
    132 H132       32.6295    3.8519   -7.7488 H         1 UNK         0.3459 
    133 H133       32.8097    4.8489   -6.3281 H         1 UNK         0.3459 
    134 H134       31.4505    0.7671   -6.2516 H         1 UNK         0.0612 
    135 H135       32.6199    0.5530   -4.9911 H         1 UNK         0.0612 
    136 H136       33.5436   -3.0671   -5.2761 H         1 UNK         0.0624 
    137 H137       34.0712   -1.5418   -4.6108 H         1 UNK         0.0624 
@<TRIPOS>BOND
     1    1    2 1    
     2    1   72 1    
     3    1   73 1    
     4    1   74 1    
     5    2    3 2    
     6    2    4 am   BACKBONE|DICT|INTERRES
     7    4    5 1    
     8    4   75 1    
     9    5    6 1    
    10    5   35 1    
    11    5   76 1    
    12    6    7 1    
    13    6   77 1    
    14    6   78 1    
    15    7    8 1    
    16    8    9 1    
    17    8   79 1    
    18    8   80 1    
    19    9   10 ar   
    20    9   14 ar   
    21   10   11 ar   
    22   10   81 1    
    23   11   12 ar   
    24   11   71 1    
    25   12   13 ar   
    26   12   82 1    
    27   13   14 ar   
    28   13   15 1    
    29   14   83 1    
    30   15   16 1    
    31   15   84 1    
    32   15   85 1    
    33   16   17 1    
    34   17   18 1    
    35   17   86 1    
    36   17   87 1    
    37   18   19 1    
    38   18   37 1    
    39   18   88 1    
    40   19   20 am   BACKBONE|DICT|INTERRES
    41   19   89 1    
    42   20   21 2    
    43   20   22 1    
    44   22   23 1    
    45   22   24 1    
    46   22   90 1    
    47   23   91 1    
    48   23   92 1    
    49   23   93 1    
    50   24   25 am   BACKBONE|DICT|INTERRES
    51   24   94 1    
    52   25   26 2    
    53   25   27 1    
    54   27   28 1    
    55   27   29 1    
    56   27   95 1    
    57   28   96 1    
    58   28   97 1    
    59   28   98 1    
    60   29   30 am   BACKBONE|DICT|INTERRES
    61   29   99 1    
    62   30   31 2    
    63   30   32 1    
    64   32   33 1    
    65   32   34 1    
    66   32  100 1    
    67   33  101 1    
    68   33  102 1    
    69   33  103 1    
    70   34   35 am   BACKBONE|DICT|INTERRES
    71   34  104 1    
    72   35   36 2    
    73   37   38 2    
    74   37   39 am   BACKBONE|DICT|INTERRES
    75   39   40 1    
    76   39  105 1    
    77   40   41 1    
    78   40   42 1    
    79   40  106 1    
    80   41  107 1    
    81   41  108 1    
    82   41  109 1    
    83   42   43 2    
    84   42   44 am   BACKBONE|DICT|INTERRES
    85   44   45 1    
    86   44  110 1    
    87   45   46 1    
    88   45   47 1    
    89   45  111 1    
    90   46  112 1    
    91   46  113 1    
    92   46  114 1    
    93   47   48 2    
    94   47   49 am   BACKBONE|DICT|INTERRES
    95   49   50 1    
    96   49  115 1    
    97   50   51 1    
    98   50   52 1    
    99   50  116 1    
   100   51  117 1    
   101   51  118 1    
   102   51  119 1    
   103   52   53 2    
   104   52   54 am   BACKBONE|DICT|INTERRES
   105   54   55 1    
   106   54  120 1    
   107   55   56 1    
   108   55   57 1    
   109   55  121 1    
   110   56  122 1    
   111   56  123 1    
   112   56  124 1    
   113   57   58 2    
   114   57   59 am   BACKBONE|DICT|INTERRES
   115   59   60 1    
   116   59  125 1    
   117   60   61 1    
   118   60   62 1    
   119   60  126 1    
   120   61  127 1    
   121   61  128 1    
   122   61  129 1    
   123   62   63 2    
   124   62   64 am   BACKBONE|DICT|INTERRES
   125   64   65 1    
   126   64  130 1    
   127   65   66 1    
   128   65   69 1    
   129   65  131 1    
   130   66   67 am   BACKBONE|DICT|INTERRES
   131   66   68 2    
   132   67  132 1    
   133   67  133 1    
   134   69   70 1    
   135   69  134 1    
   136   69  135 1    
   137   70   71 1    
   138   71  136 1    
   139   71  137 1    
@<TRIPOS>SUBSTRUCTURE
     1 UNK         1 GROUP             0       ****    0 ROOT    
