@<TRIPOS>MOLECULE
3R137
137   139    1
SMALL
USER_CHARGES


@<TRIPOS>ATOM
      1 CA         28.3180   -4.0619    2.8725 C.3       0 UNK        -0.2020 
      2 C          28.3400   -3.6545    1.4062 C.2       0 UNK         0.4855 
      3 O          27.5929   -4.2260    0.6117 O.2       0 UNK        -0.5197 
      4 N          29.1967   -2.6814    1.0617 N.am      1 UNK        -0.4892 
      5 CA         29.3969   -2.0754   -0.2667 C.3       1 UNK         0.0835 
      6 C6         29.7330   -3.0991   -1.3877 C.3       12 UNK        -0.0855 
      7 S7         31.2911   -3.9821   -1.0426 S.3       12 UNK        -0.2931 
      8 C8         31.1600   -5.3940   -2.1842 C.3       12 UNK         0.0378 
      9 C9         31.1726   -4.9659   -3.6464 C.ar      12 UNK        -0.0802 
     10 C10        32.2818   -4.2973   -4.1766 C.ar      12 UNK        -0.0944 
     11 C11        32.3099   -3.9273   -5.5238 C.ar      12 UNK        -0.0787 
     12 C12        31.2213   -4.2360   -6.3439 C.ar      12 UNK        -0.0862 
     13 C13        30.1037   -4.8975   -5.8267 C.ar      12 UNK        -0.0733 
     14 C14        30.0860   -5.2621   -4.4768 C.ar      12 UNK        -0.0832 
     15 C15        28.9210   -5.2205   -6.7329 C.3       12 UNK         0.0240 
     16 S16        27.4235   -4.2840   -6.2838 S.3       12 UNK        -0.2522 
     17 C17        28.0161   -2.5613   -6.3765 C.3       12 UNK        -0.0967 
     18 CA         27.1216   -1.6455   -7.2432 C.3       5 UNK         0.0660 
     19 N          25.7265   -1.6336   -6.8043 N.am      5 UNK        -0.4015 
     20 C          24.7053   -1.1616   -7.5331 C.2       4 UNK         0.4946 
     21 O          24.8333   -0.7129   -8.6733 O.2       4 UNK        -0.5353 
     22 CA         23.3180   -1.1411   -6.8641 C.3       4 UNK         0.0277 
     23 CB         22.5190   -2.3960   -7.2497 C.3       4 UNK        -0.1981 
     24 N          23.3710   -1.0259   -5.4011 N.am      4 UNK        -0.4209 
     25 C          23.9011    0.0110   -4.7362 C.2       3 UNK         0.4942 
     26 O          24.3639    1.0038   -5.3002 O.2       3 UNK        -0.5208 
     27 CA         23.9544   -0.0739   -3.1965 C.3       3 UNK         0.0250 
     28 CB         23.6944   -1.4916   -2.6359 C.3       3 UNK        -0.1990 
     29 N          25.2126    0.4591   -2.6553 N.am      3 UNK        -0.4232 
     30 C          26.4560    0.0483   -2.9505 C.2       2 UNK         0.4993 
     31 O          26.7119   -0.8386   -3.7664 O.2       2 UNK        -0.5286 
     32 CA         27.6315    0.7440   -2.2364 C.3       2 UNK         0.0209 
     33 CB         27.2201    1.8311   -1.2166 C.3       2 UNK        -0.1931 
     34 N          28.5371   -0.2376   -1.6270 N.am      2 UNK        -0.4546 
     35 C          28.2425   -1.1297   -0.6694 C.2       1 UNK         0.5154 
     36 O          27.1451   -1.1916   -0.1081 O.2       1 UNK        -0.5181 
     37 C          27.7261   -0.2278   -7.3242 C.2       5 UNK         0.5014 
     38 O          28.7227   -0.0534   -8.0274 O.2       5 UNK        -0.5248 
     39 N          27.1442    0.7653   -6.6285 N.am      6 UNK        -0.4434 
     40 CA         27.5779    2.1639   -6.7020 C.3       6 UNK         0.0363 
     41 CB         26.9000    3.0075   -5.6122 C.3       6 UNK        -0.1936 
     42 C          27.3237    2.7684   -8.0904 C.2       6 UNK         0.5081 
     43 O          28.1908    3.4628   -8.6184 O.2       6 UNK        -0.5248 
     44 N          26.1669    2.4430   -8.6826 N.am      7 UNK        -0.4718 
     45 CA         25.8189    2.8149  -10.0553 C.3       7 UNK         0.0273 
     46 CB         24.3215    2.5576  -10.2883 C.3       7 UNK        -0.1935 
     47 C          26.6672    2.0720  -11.1026 C.2       7 UNK         0.5018 
     48 O          26.9217    2.6259  -12.1726 O.2       7 UNK        -0.5186 
     49 N          27.0826    0.8394  -10.7788 N.am      8 UNK        -0.4240 
     50 CA         27.9065   -0.0063  -11.6389 C.3       8 UNK         0.0235 
     51 CB         27.7624   -1.4792  -11.2199 C.3       8 UNK        -0.2000 
     52 C          29.3849    0.4136  -11.6486 C.2       8 UNK         0.4941 
     53 O          29.9491    0.5667  -12.7332 O.2       8 UNK        -0.5273 
     54 N          29.9986    0.5492  -10.4626 N.am      9 UNK        -0.4262 
     55 CA         31.4543    0.6627  -10.3209 C.3       9 UNK         0.0264 
     56 CB         32.0706   -0.7530  -10.3203 C.3       9 UNK        -0.1955 
     57 C          31.9089    1.4839   -9.1013 C.2       9 UNK         0.5031 
     58 O          33.0595    1.3334   -8.6882 O.2       9 UNK        -0.5390 
     59 N          31.0376    2.3308   -8.5312 N.am      10 UNK        -0.4204 
     60 CA         31.2686    3.2279   -7.3810 C.3       10 UNK         0.0237 
     61 CB         32.4029    4.2349   -7.6588 C.3       10 UNK        -0.1985 
     62 C          31.4693    2.5306   -6.0196 C.2       10 UNK         0.4970 
     63 O          31.0000    3.0603   -5.0122 O.2       10 UNK        -0.4914 
     64 N          32.1333    1.3700   -6.0003 N.am      11 UNK        -0.4285 
     65 CA         32.3508    0.5187   -4.8189 C.3       11 UNK         0.1007 
     66 C          31.0622   -0.0681   -4.1780 C.2       11 UNK         0.5703 
     67 N          29.9649   -0.2030   -4.9096 N.am      11 UNK        -0.7361 
     68 O          31.0465   -0.3638   -2.9860 O.2       11 UNK        -0.4986 
     69 C69        33.4205   -0.5767   -5.0814 C.3       12 UNK        -0.0947 
     70 S70        33.1572   -1.5226   -6.6235 S.3       12 UNK        -0.2240 
     71 C71        33.5265   -3.2290   -6.1123 C.3       12 UNK         0.0194 
     72 H72        29.0314   -3.4922    3.4678 H         1 UNK         0.0906 
     73 H73        27.3244   -3.9021    3.2907 H         1 UNK         0.0906 
     74 H74        28.5632   -5.1191    2.9715 H         1 UNK         0.0906 
     75 H75        29.7574   -2.2642    1.7916 H         1 UNK         0.3140 
     76 H76        30.2693   -1.4289   -0.1515 H         1 UNK         0.1085 
     77 H77        28.9246   -3.8181   -1.5241 H         1 UNK         0.0836 
     78 H78        29.8479   -2.6040   -2.3531 H         1 UNK         0.0836 
     79 H79        31.9995   -6.0678   -2.0073 H         1 UNK         0.0731 
     80 H80        30.2579   -5.9604   -1.9472 H         1 UNK         0.0731 
     81 H81        33.1237   -4.0702   -3.5369 H         1 UNK         0.1312 
     82 H82        31.2466   -3.9528   -7.3875 H         1 UNK         0.1406 
     83 H83        29.2224   -5.7765   -4.0770 H         1 UNK         0.1631 
     84 H84        28.7024   -6.2874   -6.6716 H         1 UNK         0.0717 
     85 H85        29.1635   -5.0173   -7.7772 H         1 UNK         0.0717 
     86 H86        29.0330   -2.5494   -6.7716 H         1 UNK         0.0934 
     87 H87        28.0923   -2.1929   -5.3550 H         1 UNK         0.0934 
     88 H88        27.1306   -2.0494   -8.2564 H         1 UNK         0.0739 
     89 H89        25.5549   -1.9594   -5.8633 H         1 UNK         0.3093 
     90 H90        22.7883   -0.2657   -7.2459 H         1 UNK         0.0818 
     91 H91        21.5019   -2.3559   -6.8593 H         1 UNK         0.0819 
     92 H92        22.4435   -2.4914   -8.3340 H         1 UNK         0.0819 
     93 H93        22.9888   -3.3064   -6.8751 H         1 UNK         0.0819 
     94 H94        23.0107   -1.8046   -4.8683 H         1 UNK         0.3041 
     95 H95        23.1614    0.5801   -2.8312 H         1 UNK         0.0784 
     96 H96        22.6916   -1.8436   -2.8807 H         1 UNK         0.0793 
     97 H97        24.4111   -2.2203   -3.0177 H         1 UNK         0.0793 
     98 H98        23.7722   -1.5000   -1.5484 H         1 UNK         0.0793 
     99 H99        25.1148    1.2172   -1.9953 H         1 UNK         0.3024 
    100 H100       28.2082    1.2365   -3.0206 H         1 UNK         0.1171 
    101 H101       28.0989    2.2930   -0.7664 H         1 UNK         0.0786 
    102 H102       26.6102    1.4307   -0.4059 H         1 UNK         0.0786 
    103 H103       26.6559    2.6317   -1.6968 H         1 UNK         0.0786 
    104 H104       29.4669   -0.2791   -2.0419 H         1 UNK         0.2977 
    105 H105       26.3199    0.5698   -6.0701 H         1 UNK         0.3127 
    106 H106       28.6510    2.1825   -6.5157 H         1 UNK         0.0770 
    107 H107       25.8265    3.1014   -5.7775 H         1 UNK         0.0814 
    108 H108       27.3122    4.0172   -5.5962 H         1 UNK         0.0814 
    109 H109       27.0515    2.5829   -4.6219 H         1 UNK         0.0814 
    110 H110       25.5178    1.8458   -8.1886 H         1 UNK         0.2983 
    111 H111       26.0071    3.8840  -10.1779 H         1 UNK         0.0947 
    112 H112       24.0281    2.8523  -11.2968 H         1 UNK         0.0806 
    113 H113       23.7071    3.1298   -9.5930 H         1 UNK         0.0806 
    114 H114       24.0690    1.5029  -10.1708 H         1 UNK         0.0806 
    115 H115       26.8029    0.4607   -9.8850 H         1 UNK         0.3000 
    116 H116       27.5275    0.0833  -12.6597 H         1 UNK         0.0850 
    117 H117       28.2538   -2.1336  -11.9411 H         1 UNK         0.0810 
    118 H118       26.7159   -1.7811  -11.1684 H         1 UNK         0.0810 
    119 H119       28.2192   -1.6742  -10.2504 H         1 UNK         0.0810 
    120 H120       29.4742    0.3756   -9.6042 H         1 UNK         0.3040 
    121 H121       31.8537    1.2028  -11.1817 H         1 UNK         0.0766 
    122 H122       33.1592   -0.7166  -10.2624 H         1 UNK         0.0812 
    123 H123       31.7173   -1.3387   -9.4707 H         1 UNK         0.0812 
    124 H124       31.8205   -1.2986  -11.2301 H         1 UNK         0.0812 
    125 H125       30.1071    2.3958   -8.9283 H         1 UNK         0.3205 
    126 H126       30.3561    3.8153   -7.2812 H         1 UNK         0.0754 
    127 H127       32.4717    4.9713   -6.8570 H         1 UNK         0.0769 
    128 H128       32.2290    4.7815   -8.5856 H         1 UNK         0.0769 
    129 H129       33.3764    3.7495   -7.7321 H         1 UNK         0.0769 
    130 H130       32.5217    1.0324   -6.8766 H         1 UNK         0.2981 
    131 H131       32.7670    1.1763   -4.0536 H         1 UNK         0.0541 
    132 H132       29.9849    0.0303   -5.8900 H         1 UNK         0.3459 
    133 H133       29.1279   -0.5706   -4.4868 H         1 UNK         0.3459 
    134 H134       33.4925   -1.2599   -4.2328 H         1 UNK         0.0612 
    135 H135       34.4013   -0.1059   -5.1605 H         1 UNK         0.0612 
    136 H136       33.8600   -3.7867   -6.9884 H         1 UNK         0.0624 
    137 H137       34.3644   -3.2320   -5.4135 H         1 UNK         0.0624 
@<TRIPOS>BOND
     1    1    2 1    
     2    1   72 1    
     3    1   73 1    
     4    1   74 1    
     5    2    3 2    
     6    2    4 am   BACKBONE|DICT|INTERRES
     7    4    5 1    
     8    4   75 1    
     9    5    6 1    
    10    5   35 1    
    11    5   76 1    
    12    6    7 1    
    13    6   77 1    
    14    6   78 1    
    15    7    8 1    
    16    8    9 1    
    17    8   79 1    
    18    8   80 1    
    19    9   10 ar   
    20    9   14 ar   
    21   10   11 ar   
    22   10   81 1    
    23   11   12 ar   
    24   11   71 1    
    25   12   13 ar   
    26   12   82 1    
    27   13   14 ar   
    28   13   15 1    
    29   14   83 1    
    30   15   16 1    
    31   15   84 1    
    32   15   85 1    
    33   16   17 1    
    34   17   18 1    
    35   17   86 1    
    36   17   87 1    
    37   18   19 1    
    38   18   37 1    
    39   18   88 1    
    40   19   20 am   BACKBONE|DICT|INTERRES
    41   19   89 1    
    42   20   21 2    
    43   20   22 1    
    44   22   23 1    
    45   22   24 1    
    46   22   90 1    
    47   23   91 1    
    48   23   92 1    
    49   23   93 1    
    50   24   25 am   BACKBONE|DICT|INTERRES
    51   24   94 1    
    52   25   26 2    
    53   25   27 1    
    54   27   28 1    
    55   27   29 1    
    56   27   95 1    
    57   28   96 1    
    58   28   97 1    
    59   28   98 1    
    60   29   30 am   BACKBONE|DICT|INTERRES
    61   29   99 1    
    62   30   31 2    
    63   30   32 1    
    64   32   33 1    
    65   32   34 1    
    66   32  100 1    
    67   33  101 1    
    68   33  102 1    
    69   33  103 1    
    70   34   35 am   BACKBONE|DICT|INTERRES
    71   34  104 1    
    72   35   36 2    
    73   37   38 2    
    74   37   39 am   BACKBONE|DICT|INTERRES
    75   39   40 1    
    76   39  105 1    
    77   40   41 1    
    78   40   42 1    
    79   40  106 1    
    80   41  107 1    
    81   41  108 1    
    82   41  109 1    
    83   42   43 2    
    84   42   44 am   BACKBONE|DICT|INTERRES
    85   44   45 1    
    86   44  110 1    
    87   45   46 1    
    88   45   47 1    
    89   45  111 1    
    90   46  112 1    
    91   46  113 1    
    92   46  114 1    
    93   47   48 2    
    94   47   49 am   BACKBONE|DICT|INTERRES
    95   49   50 1    
    96   49  115 1    
    97   50   51 1    
    98   50   52 1    
    99   50  116 1    
   100   51  117 1    
   101   51  118 1    
   102   51  119 1    
   103   52   53 2    
   104   52   54 am   BACKBONE|DICT|INTERRES
   105   54   55 1    
   106   54  120 1    
   107   55   56 1    
   108   55   57 1    
   109   55  121 1    
   110   56  122 1    
   111   56  123 1    
   112   56  124 1    
   113   57   58 2    
   114   57   59 am   BACKBONE|DICT|INTERRES
   115   59   60 1    
   116   59  125 1    
   117   60   61 1    
   118   60   62 1    
   119   60  126 1    
   120   61  127 1    
   121   61  128 1    
   122   61  129 1    
   123   62   63 2    
   124   62   64 am   BACKBONE|DICT|INTERRES
   125   64   65 1    
   126   64  130 1    
   127   65   66 1    
   128   65   69 1    
   129   65  131 1    
   130   66   67 am   BACKBONE|DICT|INTERRES
   131   66   68 2    
   132   67  132 1    
   133   67  133 1    
   134   69   70 1    
   135   69  134 1    
   136   69  135 1    
   137   70   71 1    
   138   71  136 1    
   139   71  137 1    
@<TRIPOS>SUBSTRUCTURE
     1 UNK         1 GROUP             0       ****    0 ROOT    
