@<TRIPOS>MOLECULE
3R137
137   139    1
SMALL
USER_CHARGES


@<TRIPOS>ATOM
      1 CA         27.2035   -4.1466   -2.1481 C.3       0 UNK        -0.2020 
      2 C          27.7004   -4.3246   -0.7153 C.2       0 UNK         0.4855 
      3 O          27.5481   -5.4192   -0.1790 O.2       0 UNK        -0.5197 
      4 N          28.2653   -3.3203   -0.0240 N.am      1 UNK        -0.4892 
      5 CA         28.6299   -1.9375   -0.3925 C.3       1 UNK         0.0835 
      6 C6         29.7861   -1.8410   -1.4257 C.3       12 UNK        -0.0855 
      7 S7         31.3534   -2.5959   -0.8663 S.3       12 UNK        -0.2931 
      8 C8         31.4464   -4.1596   -1.8081 C.3       12 UNK         0.0378 
      9 C9         31.1614   -3.9973   -3.2980 C.ar      12 UNK        -0.0802 
     10 C10        31.8993   -3.1044   -4.0815 C.ar      12 UNK        -0.0944 
     11 C11        31.6016   -2.9257   -5.4416 C.ar      12 UNK        -0.0787 
     12 C12        30.5487   -3.6582   -6.0040 C.ar      12 UNK        -0.0862 
     13 C13        29.8186   -4.5695   -5.2364 C.ar      12 UNK        -0.0733 
     14 C14        30.1391   -4.7413   -3.8891 C.ar      12 UNK        -0.0832 
     15 C15        28.6968   -5.3906   -5.8540 C.3       12 UNK         0.0240 
     16 S16        27.0823   -4.5622   -5.6833 S.3       12 UNK        -0.2522 
     17 C17        26.7595   -3.9772   -7.3822 C.3       12 UNK        -0.0967 
     18 CA         26.3397   -2.4918   -7.4845 C.3       5 UNK         0.0660 
     19 N          25.1488   -2.1570   -6.7016 N.am      5 UNK        -0.4015 
     20 C          23.9196   -2.0523   -7.2237 C.2       4 UNK         0.4946 
     21 O          23.6220   -2.4165   -8.3627 O.2       4 UNK        -0.5353 
     22 CA         22.8340   -1.3885   -6.3543 C.3       4 UNK         0.0277 
     23 CB         22.0212   -2.4594   -5.6083 C.3       4 UNK        -0.1981 
     24 N          23.3289   -0.4030   -5.3855 N.am      4 UNK        -0.4209 
     25 C          24.1490    0.6313   -5.6309 C.2       3 UNK         0.4942 
     26 O          24.6055    0.9072   -6.7396 O.2       3 UNK        -0.5208 
     27 CA         24.5936    1.4746   -4.4241 C.3       3 UNK         0.0250 
     28 CB         23.7494    2.7555   -4.3327 C.3       3 UNK        -0.1990 
     29 N          24.5632    0.7805   -3.1301 N.am      3 UNK        -0.4232 
     30 C          25.1902   -0.3658   -2.8271 C.2       2 UNK         0.4993 
     31 O          25.8100   -1.0550   -3.6465 O.2       2 UNK        -0.5286 
     32 CA         25.0383   -0.8405   -1.3694 C.3       2 UNK         0.0209 
     33 CB         23.8242   -1.7758   -1.2455 C.3       2 UNK        -0.1931 
     34 N          26.2267   -1.5381   -0.8751 N.am      2 UNK        -0.4546 
     35 C          27.4523   -1.0067   -0.7740 C.2       1 UNK         0.5154 
     36 O          27.6753    0.1919   -0.9502 O.2       1 UNK        -0.5181 
     37 C          27.5000   -1.5170   -7.2221 C.2       5 UNK         0.5014 
     38 O          28.3047   -1.3190   -8.1346 O.2       5 UNK        -0.5248 
     39 N          27.5746   -0.8884   -6.0358 N.am      6 UNK        -0.4434 
     40 CA         28.6579    0.0382   -5.6943 C.3       6 UNK         0.0363 
     41 CB         28.6076    0.3932   -4.2049 C.3       6 UNK        -0.1936 
     42 C          28.6836    1.3180   -6.5424 C.2       6 UNK         0.5081 
     43 O          29.7728    1.8312   -6.7928 O.2       6 UNK        -0.5248 
     44 N          27.5189    1.8116   -6.9873 N.am      7 UNK        -0.4718 
     45 CA         27.4441    2.9712   -7.8821 C.3       7 UNK         0.0273 
     46 CB         26.0630    3.6356   -7.7713 C.3       7 UNK        -0.1935 
     47 C          27.7486    2.5913   -9.3400 C.2       7 UNK         0.5018 
     48 O          28.3144    3.4059  -10.0686 O.2       7 UNK        -0.5186 
     49 N          27.3810    1.3635   -9.7339 N.am      8 UNK        -0.4240 
     50 CA         27.5953    0.8186  -11.0753 C.3       8 UNK         0.0235 
     51 CB         26.6949   -0.4106  -11.2850 C.3       8 UNK        -0.2000 
     52 C          29.0688    0.4686  -11.3307 C.2       8 UNK         0.4941 
     53 O          29.6106    0.8502  -12.3683 O.2       8 UNK        -0.5273 
     54 N          29.6914   -0.2358  -10.3757 N.am      9 UNK        -0.4262 
     55 CA         31.0956   -0.6542  -10.4317 C.3       9 UNK         0.0264 
     56 CB         31.2313   -2.0224   -9.7456 C.3       9 UNK        -0.1955 
     57 C          32.0739    0.3894   -9.8533 C.2       9 UNK         0.5031 
     58 O          33.2814    0.1480   -9.8773 O.2       9 UNK        -0.5390 
     59 N          31.5493    1.5295   -9.3792 N.am      10 UNK        -0.4204 
     60 CA         32.2652    2.7172   -8.8972 C.3       10 UNK         0.0237 
     61 CB         33.0575    3.3830  -10.0435 C.3       10 UNK        -0.1985 
     62 C          33.1153    2.4715   -7.6342 C.2       10 UNK         0.4970 
     63 O          34.2373    2.9739   -7.5394 O.2       10 UNK        -0.4914 
     64 N          32.5423    1.7423   -6.6711 N.am      11 UNK        -0.4285 
     65 CA         33.0404    1.6482   -5.2891 C.3       11 UNK         0.1007 
     66 C          32.4242    2.7359   -4.3648 C.2       11 UNK         0.5703 
     67 N          31.2940    3.3420   -4.7139 N.am      11 UNK        -0.7361 
     68 O          32.9905    3.0443   -3.3191 O.2       11 UNK        -0.4986 
     69 C69        32.8308    0.2391   -4.6791 C.3       12 UNK        -0.0947 
     70 S70        33.7519   -1.0479   -5.5823 S.3       12 UNK        -0.2240 
     71 C71        32.3833   -1.9739   -6.3533 C.3       12 UNK         0.0194 
     72 H72        26.1195   -4.0420   -2.1608 H         1 UNK         0.0906 
     73 H73        27.6265   -3.2911   -2.6670 H         1 UNK         0.0906 
     74 H74        27.4362   -5.0359   -2.7303 H         1 UNK         0.0906 
     75 H75        28.5276   -3.5431    0.9268 H         1 UNK         0.3140 
     76 H76        29.0104   -1.5036    0.5341 H         1 UNK         0.1085 
     77 H77        30.0240   -0.7938   -1.6229 H         1 UNK         0.0836 
     78 H78        29.4922   -2.2477   -2.3892 H         1 UNK         0.0836 
     79 H79        30.7523   -4.8702   -1.3567 H         1 UNK         0.0731 
     80 H80        32.4425   -4.5862   -1.6836 H         1 UNK         0.0731 
     81 H81        32.6957   -2.5475   -3.6102 H         1 UNK         0.1312 
     82 H82        30.3003   -3.5296   -7.0482 H         1 UNK         0.1406 
     83 H83        29.5851   -5.4549   -3.2963 H         1 UNK         0.1631 
     84 H84        28.6367   -6.3593   -5.3556 H         1 UNK         0.0717 
     85 H85        28.9182   -5.6144   -6.8981 H         1 UNK         0.0717 
     86 H86        27.6271   -4.1580   -8.0190 H         1 UNK         0.0934 
     87 H87        25.9654   -4.6009   -7.7956 H         1 UNK         0.0934 
     88 H88        26.1034   -2.3219   -8.5372 H         1 UNK         0.0739 
     89 H89        25.2910   -1.8739   -5.7411 H         1 UNK         0.3093 
     90 H90        22.1633   -0.8571   -7.0324 H         1 UNK         0.0818 
     91 H91        21.1740   -2.0214   -5.0803 H         1 UNK         0.0819 
     92 H92        21.6188   -3.1988   -6.3025 H         1 UNK         0.0819 
     93 H93        22.6323   -2.9950   -4.8803 H         1 UNK         0.0819 
     94 H94        23.0307   -0.5343   -4.4305 H         1 UNK         0.3041 
     95 H95        25.6278    1.7689   -4.6075 H         1 UNK         0.0784 
     96 H96        23.7634    3.3027   -5.2767 H         1 UNK         0.0793 
     97 H97        22.7066    2.5365   -4.0997 H         1 UNK         0.0793 
     98 H98        24.1316    3.4302   -3.5663 H         1 UNK         0.0793 
     99 H99        24.0584    1.2543   -2.3943 H         1 UNK         0.3024 
    100 H100       24.8818    0.0315   -0.7303 H         1 UNK         0.1171 
    101 H101       22.9070   -1.2726   -1.5547 H         1 UNK         0.0786 
    102 H102       23.9332   -2.6642   -1.8692 H         1 UNK         0.0786 
    103 H103       23.6776   -2.1037   -0.2160 H         1 UNK         0.0786 
    104 H104       26.1242   -2.5219   -0.6807 H         1 UNK         0.2977 
    105 H105       26.9158   -1.0925   -5.2910 H         1 UNK         0.3127 
    106 H106       29.5959   -0.4897   -5.8750 H         1 UNK         0.0770 
    107 H107       27.7411    1.0048   -3.9570 H         1 UNK         0.0814 
    108 H108       29.4947    0.9509   -3.9027 H         1 UNK         0.0814 
    109 H109       28.5622   -0.5054   -3.5951 H         1 UNK         0.0814 
    110 H110       26.6474    1.3415   -6.7671 H         1 UNK         0.2983 
    111 H111       28.1900    3.7059   -7.5691 H         1 UNK         0.0947 
    112 H112       26.0320    4.5605   -8.3487 H         1 UNK         0.0806 
    113 H113       25.8254    3.8902   -6.7385 H         1 UNK         0.0806 
    114 H114       25.2693    2.9925   -8.1522 H         1 UNK         0.0806 
    115 H115       26.9495    0.7549   -9.0541 H         1 UNK         0.3000 
    116 H116       27.3021    1.5799  -11.8018 H         1 UNK         0.0850 
    117 H117       26.9404   -1.2189  -10.5958 H         1 UNK         0.0810 
    118 H118       26.8046   -0.8032  -12.2968 H         1 UNK         0.0810 
    119 H119       25.6426   -0.1608  -11.1478 H         1 UNK         0.0810 
    120 H120       29.1610   -0.5410   -9.5597 H         1 UNK         0.3040 
    121 H121       31.3850   -0.7893  -11.4761 H         1 UNK         0.0766 
    122 H122       30.8237   -2.0026   -8.7382 H         1 UNK         0.0812 
    123 H123       32.2730   -2.3395   -9.6819 H         1 UNK         0.0812 
    124 H124       30.6935   -2.7916  -10.2997 H         1 UNK         0.0812 
    125 H125       30.5417    1.6023   -9.3739 H         1 UNK         0.3205 
    126 H126       31.4896    3.4222   -8.5933 H         1 UNK         0.0754 
    127 H127       33.4749    4.3398   -9.7273 H         1 UNK         0.0769 
    128 H128       32.4184    3.5792  -10.9046 H         1 UNK         0.0769 
    129 H129       33.8884    2.7604  -10.3770 H         1 UNK         0.0769 
    130 H130       31.5757    1.4630   -6.8118 H         1 UNK         0.2981 
    131 H131       34.1158    1.8356   -5.2904 H         1 UNK         0.0541 
    132 H132       30.7941    3.0552   -5.5463 H         1 UNK         0.3459 
    133 H133       30.9104    4.0532   -4.1127 H         1 UNK         0.3459 
    134 H134       31.7699   -0.0135   -4.6449 H         1 UNK         0.0612 
    135 H135       33.1795    0.2134   -3.6450 H         1 UNK         0.0612 
    136 H136       32.8026   -2.5544   -7.1757 H         1 UNK         0.0624 
    137 H137       31.6968   -1.2525   -6.7961 H         1 UNK         0.0624 
@<TRIPOS>BOND
     1    1    2 1    
     2    1   72 1    
     3    1   73 1    
     4    1   74 1    
     5    2    3 2    
     6    2    4 am   BACKBONE|DICT|INTERRES
     7    4    5 1    
     8    4   75 1    
     9    5    6 1    
    10    5   35 1    
    11    5   76 1    
    12    6    7 1    
    13    6   77 1    
    14    6   78 1    
    15    7    8 1    
    16    8    9 1    
    17    8   79 1    
    18    8   80 1    
    19    9   10 ar   
    20    9   14 ar   
    21   10   11 ar   
    22   10   81 1    
    23   11   12 ar   
    24   11   71 1    
    25   12   13 ar   
    26   12   82 1    
    27   13   14 ar   
    28   13   15 1    
    29   14   83 1    
    30   15   16 1    
    31   15   84 1    
    32   15   85 1    
    33   16   17 1    
    34   17   18 1    
    35   17   86 1    
    36   17   87 1    
    37   18   19 1    
    38   18   37 1    
    39   18   88 1    
    40   19   20 am   BACKBONE|DICT|INTERRES
    41   19   89 1    
    42   20   21 2    
    43   20   22 1    
    44   22   23 1    
    45   22   24 1    
    46   22   90 1    
    47   23   91 1    
    48   23   92 1    
    49   23   93 1    
    50   24   25 am   BACKBONE|DICT|INTERRES
    51   24   94 1    
    52   25   26 2    
    53   25   27 1    
    54   27   28 1    
    55   27   29 1    
    56   27   95 1    
    57   28   96 1    
    58   28   97 1    
    59   28   98 1    
    60   29   30 am   BACKBONE|DICT|INTERRES
    61   29   99 1    
    62   30   31 2    
    63   30   32 1    
    64   32   33 1    
    65   32   34 1    
    66   32  100 1    
    67   33  101 1    
    68   33  102 1    
    69   33  103 1    
    70   34   35 am   BACKBONE|DICT|INTERRES
    71   34  104 1    
    72   35   36 2    
    73   37   38 2    
    74   37   39 am   BACKBONE|DICT|INTERRES
    75   39   40 1    
    76   39  105 1    
    77   40   41 1    
    78   40   42 1    
    79   40  106 1    
    80   41  107 1    
    81   41  108 1    
    82   41  109 1    
    83   42   43 2    
    84   42   44 am   BACKBONE|DICT|INTERRES
    85   44   45 1    
    86   44  110 1    
    87   45   46 1    
    88   45   47 1    
    89   45  111 1    
    90   46  112 1    
    91   46  113 1    
    92   46  114 1    
    93   47   48 2    
    94   47   49 am   BACKBONE|DICT|INTERRES
    95   49   50 1    
    96   49  115 1    
    97   50   51 1    
    98   50   52 1    
    99   50  116 1    
   100   51  117 1    
   101   51  118 1    
   102   51  119 1    
   103   52   53 2    
   104   52   54 am   BACKBONE|DICT|INTERRES
   105   54   55 1    
   106   54  120 1    
   107   55   56 1    
   108   55   57 1    
   109   55  121 1    
   110   56  122 1    
   111   56  123 1    
   112   56  124 1    
   113   57   58 2    
   114   57   59 am   BACKBONE|DICT|INTERRES
   115   59   60 1    
   116   59  125 1    
   117   60   61 1    
   118   60   62 1    
   119   60  126 1    
   120   61  127 1    
   121   61  128 1    
   122   61  129 1    
   123   62   63 2    
   124   62   64 am   BACKBONE|DICT|INTERRES
   125   64   65 1    
   126   64  130 1    
   127   65   66 1    
   128   65   69 1    
   129   65  131 1    
   130   66   67 am   BACKBONE|DICT|INTERRES
   131   66   68 2    
   132   67  132 1    
   133   67  133 1    
   134   69   70 1    
   135   69  134 1    
   136   69  135 1    
   137   70   71 1    
   138   71  136 1    
   139   71  137 1    
@<TRIPOS>SUBSTRUCTURE
     1 UNK         1 GROUP             0       ****    0 ROOT    
