@<TRIPOS>MOLECULE
3R137
137   139    1
SMALL
USER_CHARGES


@<TRIPOS>ATOM
      1 CA         25.1820   -4.2494    2.7408 C.3       0 UNK        -0.2020 
      2 C          26.5820   -4.5743    2.2259 C.2       0 UNK         0.4855 
      3 O          26.9987   -5.7280    2.3044 O.2       0 UNK        -0.5197 
      4 N          27.3503   -3.6086    1.7009 N.am      1 UNK        -0.4892 
      5 CA         27.0010   -2.1981    1.4746 C.3       1 UNK         0.0835 
      6 C6         28.2582   -1.3296    1.2010 C.3       12 UNK        -0.0855 
      7 S7         29.4042   -2.0266   -0.0425 S.3       12 UNK        -0.2931 
      8 C8         28.9693   -1.0448   -1.5093 C.3       12 UNK         0.0378 
      9 C9         29.6657   -1.5652   -2.7574 C.ar      12 UNK        -0.0802 
     10 C10        30.6061   -0.7776   -3.4280 C.ar      12 UNK        -0.0944 
     11 C11        31.2130   -1.2355   -4.6029 C.ar      12 UNK        -0.0787 
     12 C12        30.8925   -2.5105   -5.0835 C.ar      12 UNK        -0.0862 
     13 C13        29.9526   -3.3061   -4.4241 C.ar      12 UNK        -0.0733 
     14 C14        29.3408   -2.8265   -3.2628 C.ar      12 UNK        -0.0832 
     15 C15        29.5983   -4.6823   -4.9699 C.3       12 UNK         0.0240 
     16 S16        28.5806   -4.5884   -6.4789 S.3       12 UNK        -0.2522 
     17 C17        27.0536   -3.8124   -5.8507 C.3       12 UNK        -0.0967 
     18 CA         26.5309   -2.6642   -6.7465 C.3       5 UNK         0.0660 
     19 N          25.1878   -2.2533   -6.3421 N.am      5 UNK        -0.4015 
     20 C          24.2676   -1.7326   -7.1653 C.2       4 UNK         0.4946 
     21 O          24.4095   -1.6436   -8.3849 O.2       4 UNK        -0.5353 
     22 CA         22.9658   -1.2140   -6.5252 C.3       4 UNK         0.0277 
     23 CB         21.8657   -2.2849   -6.6032 C.3       4 UNK        -0.1981 
     24 N          23.1282   -0.7879   -5.1317 N.am      4 UNK        -0.4209 
     25 C          23.8546    0.2688   -4.7397 C.2       3 UNK         0.4942 
     26 O          24.4278    1.0291   -5.5181 O.2       3 UNK        -0.5208 
     27 CA         24.0130    0.4809   -3.2238 C.3       3 UNK         0.0250 
     28 CB         22.8742    1.3586   -2.6816 C.3       3 UNK        -0.1990 
     29 N          24.0847   -0.7646   -2.4503 N.am      3 UNK        -0.4232 
     30 C          25.0067   -1.7233   -2.6158 C.2       2 UNK         0.4993 
     31 O          25.8924   -1.6780   -3.4731 O.2       2 UNK        -0.5286 
     32 CA         24.9052   -2.9490   -1.6907 C.3       2 UNK         0.0209 
     33 CB         25.0861   -4.2570   -2.4809 C.3       2 UNK        -0.1931 
     34 N          25.8840   -2.9127   -0.6018 N.am      2 UNK        -0.4546 
     35 C          25.9223   -2.0064    0.3860 C.2       1 UNK         0.5154 
     36 O          25.1232   -1.0757    0.4905 O.2       1 UNK        -0.5181 
     37 C          27.4582   -1.4319   -6.7790 C.2       5 UNK         0.5014 
     38 O          28.1559   -1.2339   -7.7742 O.2       5 UNK        -0.5248 
     39 N          27.3927   -0.5855   -5.7363 N.am      6 UNK        -0.4434 
     40 CA         28.1402    0.6758   -5.6226 C.3       6 UNK         0.0363 
     41 CB         27.8020    1.3622   -4.2907 C.3       6 UNK        -0.1936 
     42 C          27.9028    1.6514   -6.7879 C.2       6 UNK         0.5081 
     43 O          28.8362    2.3364   -7.2082 O.2       6 UNK        -0.5248 
     44 N          26.6729    1.6563   -7.3216 N.am      7 UNK        -0.4718 
     45 CA         26.2374    2.4139   -8.4985 C.3       7 UNK         0.0273 
     46 CB         24.7373    2.1631   -8.7240 C.3       7 UNK        -0.1935 
     47 C          27.0286    2.1337   -9.7925 C.2       7 UNK         0.5018 
     48 O          26.9445    2.9422  -10.7181 O.2       7 UNK        -0.5186 
     49 N          27.7924    1.0299   -9.8459 N.am      8 UNK        -0.4240 
     50 CA         28.7320    0.7324  -10.9300 C.3       8 UNK         0.0235 
     51 CB         29.2443   -0.7098  -10.7893 C.3       8 UNK        -0.2000 
     52 C          29.9209    1.7090  -10.9906 C.2       8 UNK         0.4941 
     53 O          30.4815    1.8864  -12.0730 O.2       8 UNK        -0.5273 
     54 N          30.2958    2.3074   -9.8461 N.am      9 UNK        -0.4262 
     55 CA         31.3608    3.2996   -9.6187 C.3       9 UNK         0.0264 
     56 CB         31.0742    4.6068  -10.3815 C.3       9 UNK        -0.1955 
     57 C          32.7962    2.8078   -9.8902 C.2       9 UNK         0.5031 
     58 O          33.6857    3.0633   -9.0766 O.2       9 UNK        -0.5390 
     59 N          32.9995    2.0865  -11.0000 N.am      10 UNK        -0.4204 
     60 CA         34.2629    1.4815  -11.4392 C.3       10 UNK         0.0237 
     61 CB         34.0621    0.8732  -12.8367 C.3       10 UNK        -0.1985 
     62 C          34.8336    0.4287  -10.4698 C.2       10 UNK         0.4970 
     63 O          36.0200    0.1100  -10.5579 O.2       10 UNK        -0.4914 
     64 N          33.9917   -0.0730   -9.5587 N.am      11 UNK        -0.4285 
     65 CA         34.3669   -0.8998   -8.4068 C.3       11 UNK         0.1007 
     66 C          35.2855   -0.1922   -7.3640 C.2       11 UNK         0.5703 
     67 N          35.3718    1.1343   -7.3408 N.am      11 UNK        -0.7361 
     68 O          35.9350   -0.8645   -6.5669 O.2       11 UNK        -0.4986 
     69 C69        33.1079   -1.5163   -7.7413 C.3       12 UNK        -0.0947 
     70 S70        31.9169   -0.2627   -7.1385 S.3       12 UNK        -0.2240 
     71 C71        32.2043   -0.3367   -5.3369 C.3       12 UNK         0.0194 
     72 H72        24.4925   -4.0901    1.9126 H         1 UNK         0.0906 
     73 H73        24.7968   -5.0774    3.3358 H         1 UNK         0.0906 
     74 H74        25.1814   -3.3661    3.3779 H         1 UNK         0.0906 
     75 H75        28.2766   -3.8566    1.3796 H         1 UNK         0.3140 
     76 H76        26.5619   -1.8172    2.3987 H         1 UNK         0.1085 
     77 H77        27.9823   -0.3085    0.9284 H         1 UNK         0.0836 
     78 H78        28.8236   -1.2307    2.1291 H         1 UNK         0.0836 
     79 H79        27.8918   -1.0769   -1.6686 H         1 UNK         0.0731 
     80 H80        29.2251    0.0002   -1.3275 H         1 UNK         0.0731 
     81 H81        30.8500    0.2041   -3.0458 H         1 UNK         0.1312 
     82 H82        31.3515   -2.8813   -5.9883 H         1 UNK         0.1406 
     83 H83        28.6064   -3.4305   -2.7481 H         1 UNK         0.1631 
     84 H84        29.0726   -5.2750   -4.2196 H         1 UNK         0.0717 
     85 H85        30.5165   -5.2253   -5.1982 H         1 UNK         0.0717 
     86 H86        27.1980   -3.4631   -4.8303 H         1 UNK         0.0934 
     87 H87        26.3001   -4.5991   -5.7867 H         1 UNK         0.0934 
     88 H88        26.4738   -3.0514   -7.7665 H         1 UNK         0.0739 
     89 H89        25.0162   -2.2321   -5.3453 H         1 UNK         0.3093 
     90 H90        22.6423   -0.3465   -7.1048 H         1 UNK         0.0818 
     91 H91        20.9140   -1.9051   -6.2310 H         1 UNK         0.0819 
     92 H92        21.7036   -2.6023   -7.6345 H         1 UNK         0.0819 
     93 H93        22.1232   -3.1739   -6.0260 H         1 UNK         0.0819 
     94 H94        22.6799   -1.3510   -4.4236 H         1 UNK         0.3041 
     95 H95        24.9529    1.0115   -3.0643 H         1 UNK         0.0784 
     96 H96        21.9044    0.8684   -2.7750 H         1 UNK         0.0793 
     97 H97        23.0280    1.6031   -1.6303 H         1 UNK         0.0793 
     98 H98        22.8165    2.3025   -3.2260 H         1 UNK         0.0793 
     99 H99        23.4219   -0.8604   -1.6936 H         1 UNK         0.3024 
    100 H100       23.9075   -2.9644   -1.2462 H         1 UNK         0.1171 
    101 H101       24.4002   -4.3040   -3.3279 H         1 UNK         0.0786 
    102 H102       24.8852   -5.1270   -1.8555 H         1 UNK         0.0786 
    103 H103       26.0981   -4.3574   -2.8736 H         1 UNK         0.0786 
    104 H104       26.5886   -3.6359   -0.5996 H         1 UNK         0.2977 
    105 H105       26.8193   -0.8479   -4.9388 H         1 UNK         0.3127 
    106 H106       29.1996    0.4191   -5.6254 H         1 UNK         0.0770 
    107 H107       26.7940    1.7761   -4.2975 H         1 UNK         0.0814 
    108 H108       28.4886    2.1871   -4.0973 H         1 UNK         0.0814 
    109 H109       27.8734    0.6735   -3.4517 H         1 UNK         0.0814 
    110 H110       25.9542    1.1214   -6.8432 H         1 UNK         0.2983 
    111 H111       26.3777    3.4719   -8.2682 H         1 UNK         0.0947 
    112 H112       24.3670    2.7313   -9.5785 H         1 UNK         0.0806 
    113 H113       24.1488    2.4660   -7.8577 H         1 UNK         0.0806 
    114 H114       24.5316    1.1098   -8.9179 H         1 UNK         0.0806 
    115 H115       27.8048    0.4011   -9.0485 H         1 UNK         0.3000 
    116 H116       28.1904    0.8134  -11.8748 H         1 UNK         0.0850 
    117 H117       29.8906   -0.9783  -11.6261 H         1 UNK         0.0810 
    118 H118       28.4216   -1.4248  -10.7715 H         1 UNK         0.0810 
    119 H119       29.8237   -0.8444   -9.8745 H         1 UNK         0.0810 
    120 H120       29.7625    2.0822   -9.0102 H         1 UNK         0.3040 
    121 H121       31.3122    3.5281   -8.5526 H         1 UNK         0.0766 
    122 H122       31.8136    5.3705  -10.1365 H         1 UNK         0.0812 
    123 H123       30.0947    5.0085  -10.1215 H         1 UNK         0.0812 
    124 H124       31.1011    4.4645  -11.4623 H         1 UNK         0.0812 
    125 H125       32.1838    1.9414  -11.5961 H         1 UNK         0.3205 
    126 H126       35.0011    2.2823  -11.5131 H         1 UNK         0.0754 
    127 H127       34.9893    0.4384  -13.2131 H         1 UNK         0.0769 
    128 H128       33.7450    1.6285  -13.5562 H         1 UNK         0.0769 
    129 H129       33.3100    0.0831  -12.8271 H         1 UNK         0.0769 
    130 H130       33.0394    0.2587   -9.5577 H         1 UNK         0.2981 
    131 H131       34.9569   -1.7284   -8.8026 H         1 UNK         0.0541 
    132 H132       35.9731    1.5762   -6.6643 H         1 UNK         0.3459 
    133 H133       34.8218    1.7032   -7.9743 H         1 UNK         0.3459 
    134 H134       33.3956   -2.1873   -6.9304 H         1 UNK         0.0612 
    135 H135       32.5848   -2.1439   -8.4643 H         1 UNK         0.0612 
    136 H136       33.2209   -0.6687   -5.1241 H         1 UNK         0.0624 
    137 H137       32.1343    0.6838   -4.9575 H         1 UNK         0.0624 
@<TRIPOS>BOND
     1    1    2 1    
     2    1   72 1    
     3    1   73 1    
     4    1   74 1    
     5    2    3 2    
     6    2    4 am   BACKBONE|DICT|INTERRES
     7    4    5 1    
     8    4   75 1    
     9    5    6 1    
    10    5   35 1    
    11    5   76 1    
    12    6    7 1    
    13    6   77 1    
    14    6   78 1    
    15    7    8 1    
    16    8    9 1    
    17    8   79 1    
    18    8   80 1    
    19    9   10 ar   
    20    9   14 ar   
    21   10   11 ar   
    22   10   81 1    
    23   11   12 ar   
    24   11   71 1    
    25   12   13 ar   
    26   12   82 1    
    27   13   14 ar   
    28   13   15 1    
    29   14   83 1    
    30   15   16 1    
    31   15   84 1    
    32   15   85 1    
    33   16   17 1    
    34   17   18 1    
    35   17   86 1    
    36   17   87 1    
    37   18   19 1    
    38   18   37 1    
    39   18   88 1    
    40   19   20 am   BACKBONE|DICT|INTERRES
    41   19   89 1    
    42   20   21 2    
    43   20   22 1    
    44   22   23 1    
    45   22   24 1    
    46   22   90 1    
    47   23   91 1    
    48   23   92 1    
    49   23   93 1    
    50   24   25 am   BACKBONE|DICT|INTERRES
    51   24   94 1    
    52   25   26 2    
    53   25   27 1    
    54   27   28 1    
    55   27   29 1    
    56   27   95 1    
    57   28   96 1    
    58   28   97 1    
    59   28   98 1    
    60   29   30 am   BACKBONE|DICT|INTERRES
    61   29   99 1    
    62   30   31 2    
    63   30   32 1    
    64   32   33 1    
    65   32   34 1    
    66   32  100 1    
    67   33  101 1    
    68   33  102 1    
    69   33  103 1    
    70   34   35 am   BACKBONE|DICT|INTERRES
    71   34  104 1    
    72   35   36 2    
    73   37   38 2    
    74   37   39 am   BACKBONE|DICT|INTERRES
    75   39   40 1    
    76   39  105 1    
    77   40   41 1    
    78   40   42 1    
    79   40  106 1    
    80   41  107 1    
    81   41  108 1    
    82   41  109 1    
    83   42   43 2    
    84   42   44 am   BACKBONE|DICT|INTERRES
    85   44   45 1    
    86   44  110 1    
    87   45   46 1    
    88   45   47 1    
    89   45  111 1    
    90   46  112 1    
    91   46  113 1    
    92   46  114 1    
    93   47   48 2    
    94   47   49 am   BACKBONE|DICT|INTERRES
    95   49   50 1    
    96   49  115 1    
    97   50   51 1    
    98   50   52 1    
    99   50  116 1    
   100   51  117 1    
   101   51  118 1    
   102   51  119 1    
   103   52   53 2    
   104   52   54 am   BACKBONE|DICT|INTERRES
   105   54   55 1    
   106   54  120 1    
   107   55   56 1    
   108   55   57 1    
   109   55  121 1    
   110   56  122 1    
   111   56  123 1    
   112   56  124 1    
   113   57   58 2    
   114   57   59 am   BACKBONE|DICT|INTERRES
   115   59   60 1    
   116   59  125 1    
   117   60   61 1    
   118   60   62 1    
   119   60  126 1    
   120   61  127 1    
   121   61  128 1    
   122   61  129 1    
   123   62   63 2    
   124   62   64 am   BACKBONE|DICT|INTERRES
   125   64   65 1    
   126   64  130 1    
   127   65   66 1    
   128   65   69 1    
   129   65  131 1    
   130   66   67 am   BACKBONE|DICT|INTERRES
   131   66   68 2    
   132   67  132 1    
   133   67  133 1    
   134   69   70 1    
   135   69  134 1    
   136   69  135 1    
   137   70   71 1    
   138   71  136 1    
   139   71  137 1    
@<TRIPOS>SUBSTRUCTURE
     1 UNK         1 GROUP             0       ****    0 ROOT    
