@<TRIPOS>MOLECULE
3R137
137   139    1
SMALL
USER_CHARGES


@<TRIPOS>ATOM
      1 CA         29.2391    0.6696    1.8027 C.3       0 UNK        -0.2020 
      2 C          28.7932   -0.1332    0.5907 C.2       0 UNK         0.4855 
      3 O          28.6657    0.4219   -0.5010 O.2       0 UNK        -0.5197 
      4 N          28.5315   -1.4337    0.7721 N.am      1 UNK        -0.4892 
      5 CA         28.1536   -2.3952   -0.2753 C.3       1 UNK         0.0835 
      6 C6         28.5344   -3.8494    0.1318 C.3       12 UNK        -0.0855 
      7 S7         30.3231   -4.0581    0.4756 S.3       12 UNK        -0.2931 
      8 C8         30.9724   -4.7071   -1.1045 C.3       12 UNK         0.0378 
      9 C9         30.6740   -3.7478   -2.2444 C.ar      12 UNK        -0.0802 
     10 C10        31.4517   -2.6002   -2.4283 C.ar      12 UNK        -0.0944 
     11 C11        31.0770   -1.6349   -3.3684 C.ar      12 UNK        -0.0787 
     12 C12        29.9155   -1.8289   -4.1223 C.ar      12 UNK        -0.0862 
     13 C13        29.1420   -2.9801   -3.9547 C.ar      12 UNK        -0.0733 
     14 C14        29.5480   -3.9550   -3.0439 C.ar      12 UNK        -0.0832 
     15 C15        27.7976   -3.1206   -4.6420 C.3       12 UNK         0.0240 
     16 S16        27.8331   -4.1872   -6.1129 S.3       12 UNK        -0.2522 
     17 C17        28.6490   -3.1488   -7.3804 C.3       12 UNK        -0.0967 
     18 CA         27.8199   -1.9570   -7.9537 C.3       5 UNK         0.0660 
     19 N          26.3684   -2.1407   -7.8435 N.am      5 UNK        -0.4015 
     20 C          25.4359   -1.3108   -8.3304 C.2       4 UNK         0.4946 
     21 O          25.6951   -0.3332   -9.0323 O.2       4 UNK        -0.5353 
     22 CA         23.9732   -1.5631   -7.9183 C.3       4 UNK         0.0277 
     23 CB         23.2524   -2.3773   -9.0040 C.3       4 UNK        -0.1981 
     24 N          23.7680   -2.2065   -6.6100 N.am      4 UNK        -0.4209 
     25 C          24.2991   -1.8258   -5.4374 C.2       3 UNK         0.4942 
     26 O          25.1442   -0.9334   -5.3335 O.2       3 UNK        -0.5208 
     27 CA         23.8137   -2.5926   -4.1890 C.3       3 UNK         0.0250 
     28 CB         24.0666   -4.1076   -4.3056 C.3       3 UNK        -0.1990 
     29 N          24.4132   -2.0941   -2.9443 N.am      3 UNK        -0.4232 
     30 C          24.0925   -0.9344   -2.3570 C.2       2 UNK         0.4993 
     31 O          23.2244   -0.1752   -2.7919 O.2       2 UNK        -0.5286 
     32 CA         24.8242   -0.5341   -1.0608 C.3       2 UNK         0.0209 
     33 CB         23.9670   -0.8805    0.1730 C.3       2 UNK        -0.1931 
     34 N          26.2039   -1.0172   -0.8847 N.am      2 UNK        -0.4546 
     35 C          26.6658   -2.2613   -0.6955 C.2       1 UNK         0.5154 
     36 O          25.9655   -3.2666   -0.8249 O.2       1 UNK        -0.5181 
     37 C          28.3198   -0.6068   -7.3953 C.2       5 UNK         0.5014 
     38 O          29.2972   -0.0802   -7.9262 O.2       5 UNK        -0.5248 
     39 N          27.6586   -0.0624   -6.3628 N.am      6 UNK        -0.4434 
     40 CA         28.0099    1.2173   -5.7465 C.3       6 UNK         0.0363 
     41 CB         27.4851    1.2572   -4.3011 C.3       6 UNK        -0.1936 
     42 C          27.4662    2.4009   -6.5588 C.2       6 UNK         0.5081 
     43 O          28.1311    3.4328   -6.6378 O.2       6 UNK        -0.5248 
     44 N          26.2882    2.2230   -7.1745 N.am      7 UNK        -0.4718 
     45 CA         25.6702    3.1952   -8.0799 C.3       7 UNK         0.0273 
     46 CB         24.1918    2.8336   -8.2972 C.3       7 UNK        -0.1935 
     47 C          26.4187    3.2826   -9.4197 C.2       7 UNK         0.5018 
     48 O          26.6344    4.3842   -9.9254 O.2       7 UNK        -0.5186 
     49 N          26.8290    2.1214   -9.9488 N.am      8 UNK        -0.4240 
     50 CA         27.6593    1.9946  -11.1488 C.3       8 UNK         0.0235 
     51 CB         27.5748    0.5453  -11.6566 C.3       8 UNK        -0.2000 
     52 C          29.1314    2.3877  -10.9232 C.2       8 UNK         0.4941 
     53 O          29.8324    2.6444  -11.9026 O.2       8 UNK        -0.5273 
     54 N          29.5758    2.3923   -9.6559 N.am      9 UNK        -0.4262 
     55 CA         30.9570    2.5713   -9.1884 C.3       9 UNK         0.0264 
     56 CB         31.4684    3.9961   -9.4869 C.3       9 UNK        -0.1955 
     57 C          31.9005    1.4664   -9.7065 C.2       9 UNK         0.5031 
     58 O          33.0697    1.7292   -9.9958 O.2       9 UNK        -0.5390 
     59 N          31.3746    0.2369   -9.7975 N.am      10 UNK        -0.4204 
     60 CA         32.0702   -0.9554  -10.2906 C.3       10 UNK         0.0237 
     61 CB         31.0469   -2.0819  -10.5062 C.3       10 UNK        -0.1985 
     62 C          33.1989   -1.4191   -9.3555 C.2       10 UNK         0.4970 
     63 O          34.1720   -2.0105   -9.8236 O.2       10 UNK        -0.4914 
     64 N          33.0525   -1.1194   -8.0608 N.am      11 UNK        -0.4285 
     65 CA         34.0728   -1.2908   -7.0207 C.3       11 UNK         0.1007 
     66 C          35.2372   -0.2551   -7.0707 C.2       11 UNK         0.5703 
     67 N          35.2004    0.7652   -7.9222 N.am      11 UNK        -0.7361 
     68 O          36.2075   -0.3916   -6.3291 O.2       11 UNK        -0.4986 
     69 C69        33.4181   -1.3814   -5.6172 C.3       12 UNK        -0.0947 
     70 S70        32.3341    0.0357   -5.2268 S.3       12 UNK        -0.2240 
     71 C71        31.8807   -0.3467   -3.5052 C.3       12 UNK         0.0194 
     72 H72        30.2195    1.1088    1.6200 H         1 UNK         0.0906 
     73 H73        28.5345    1.4776    1.9976 H         1 UNK         0.0906 
     74 H74        29.3057    0.0530    2.6989 H         1 UNK         0.0906 
     75 H75        28.6382   -1.8308    1.6950 H         1 UNK         0.3140 
     76 H76        28.7260   -2.1354   -1.1660 H         1 UNK         0.1085 
     77 H77        27.9845   -4.1403    1.0287 H         1 UNK         0.0836 
     78 H78        28.2375   -4.5664   -0.6345 H         1 UNK         0.0836 
     79 H79        32.0498   -4.8545   -1.0170 H         1 UNK         0.0731 
     80 H80        30.5413   -5.6904   -1.3001 H         1 UNK         0.0731 
     81 H81        32.3161   -2.4352   -1.7995 H         1 UNK         0.1312 
     82 H82        29.6021   -1.0610   -4.8119 H         1 UNK         0.1406 
     83 H83        28.9343   -4.8334   -2.8955 H         1 UNK         0.1631 
     84 H84        27.3900   -2.1456   -4.8865 H         1 UNK         0.0717 
     85 H85        27.0978   -3.5477   -3.9245 H         1 UNK         0.0717 
     86 H86        29.6254   -2.8348   -7.0033 H         1 UNK         0.0934 
     87 H87        28.8837   -3.8244   -8.2044 H         1 UNK         0.0934 
     88 H88        28.0264   -1.9109   -9.0252 H         1 UNK         0.0739 
     89 H89        26.0718   -2.9205   -7.2745 H         1 UNK         0.3093 
     90 H90        23.4956   -0.5831   -7.8598 H         1 UNK         0.0818 
     91 H91        22.1824   -2.4458   -8.8068 H         1 UNK         0.0819 
     92 H92        23.3675   -1.9110   -9.9840 H         1 UNK         0.0819 
     93 H93        23.6476   -3.3913   -9.0775 H         1 UNK         0.0819 
     94 H94        23.0942   -2.9588   -6.5969 H         1 UNK         0.3041 
     95 H95        22.7347   -2.4390   -4.1184 H         1 UNK         0.0784 
     96 H96        23.4666   -4.5494   -5.1016 H         1 UNK         0.0793 
     97 H97        25.1067   -4.3399   -4.5249 H         1 UNK         0.0793 
     98 H98        23.7969   -4.6263   -3.3852 H         1 UNK         0.0793 
     99 H99        25.0941   -2.6815   -2.4750 H         1 UNK         0.3024 
    100 H100       24.9090    0.5535   -1.0995 H         1 UNK         0.1171 
    101 H101       22.9742   -0.4345    0.0967 H         1 UNK         0.0786 
    102 H102       24.4203   -0.5034    1.0898 H         1 UNK         0.0786 
    103 H103       23.8299   -1.9566    0.2836 H         1 UNK         0.0786 
    104 H104       26.9074   -0.2853   -0.8132 H         1 UNK         0.2977 
    105 H105       26.8162   -0.5144   -6.0093 H         1 UNK         0.3127 
    106 H106       29.0985    1.3059   -5.7127 H         1 UNK         0.0770 
    107 H107       26.3966    1.1995   -4.2618 H         1 UNK         0.0814 
    108 H108       27.7792    2.1842   -3.8073 H         1 UNK         0.0814 
    109 H109       27.8840    0.4356   -3.7060 H         1 UNK         0.0814 
    110 H110       25.8233    1.3317   -7.0742 H         1 UNK         0.2983 
    111 H111       25.7155    4.1794   -7.6081 H         1 UNK         0.0947 
    112 H112       23.7033    3.5681   -8.9389 H         1 UNK         0.0806 
    113 H113       23.6453    2.8140   -7.3541 H         1 UNK         0.0806 
    114 H114       24.0757    1.8592   -8.7728 H         1 UNK         0.0806 
    115 H115       26.5307    1.2536   -9.5056 H         1 UNK         0.3000 
    116 H116       27.2555    2.6556  -11.9188 H         1 UNK         0.0850 
    117 H117       28.1512    0.4162  -12.5738 H         1 UNK         0.0810 
    118 H118       26.5455    0.2617  -11.8774 H         1 UNK         0.0810 
    119 H119       27.9650   -0.1612  -10.9230 H         1 UNK         0.0810 
    120 H120       28.9125    2.1393   -8.9362 H         1 UNK         0.3040 
    121 H121       30.9240    2.4540   -8.1039 H         1 UNK         0.0766 
    122 H122       32.4375    4.1687   -9.0174 H         1 UNK         0.0812 
    123 H123       30.7830    4.7510   -9.1017 H         1 UNK         0.0812 
    124 H124       31.5918    4.1675  -10.5566 H         1 UNK         0.0812 
    125 H125       30.4459    0.1016   -9.4044 H         1 UNK         0.3205 
    126 H126       32.5200   -0.7065  -11.2540 H         1 UNK         0.0754 
    127 H127       31.5265   -2.9709  -10.9181 H         1 UNK         0.0769 
    128 H128       30.2665   -1.7815  -11.2058 H         1 UNK         0.0769 
    129 H129       30.5677   -2.3732   -9.5715 H         1 UNK         0.0769 
    130 H130       32.2199   -0.6279   -7.7698 H         1 UNK         0.2981 
    131 H131       34.5500   -2.2555   -7.2025 H         1 UNK         0.0541 
    132 H132       34.4231    0.8976   -8.5567 H         1 UNK         0.3459 
    133 H133       35.9702    1.4147   -7.9368 H         1 UNK         0.3459 
    134 H134       34.1746   -1.4814   -4.8368 H         1 UNK         0.0612 
    135 H135       32.8146   -2.2889   -5.5624 H         1 UNK         0.0612 
    136 H136       31.2860    0.4776   -3.1093 H         1 UNK         0.0624 
    137 H137       32.7906   -0.3886   -2.9047 H         1 UNK         0.0624 
@<TRIPOS>BOND
     1    1    2 1    
     2    1   72 1    
     3    1   73 1    
     4    1   74 1    
     5    2    3 2    
     6    2    4 am   BACKBONE|DICT|INTERRES
     7    4    5 1    
     8    4   75 1    
     9    5    6 1    
    10    5   35 1    
    11    5   76 1    
    12    6    7 1    
    13    6   77 1    
    14    6   78 1    
    15    7    8 1    
    16    8    9 1    
    17    8   79 1    
    18    8   80 1    
    19    9   10 ar   
    20    9   14 ar   
    21   10   11 ar   
    22   10   81 1    
    23   11   12 ar   
    24   11   71 1    
    25   12   13 ar   
    26   12   82 1    
    27   13   14 ar   
    28   13   15 1    
    29   14   83 1    
    30   15   16 1    
    31   15   84 1    
    32   15   85 1    
    33   16   17 1    
    34   17   18 1    
    35   17   86 1    
    36   17   87 1    
    37   18   19 1    
    38   18   37 1    
    39   18   88 1    
    40   19   20 am   BACKBONE|DICT|INTERRES
    41   19   89 1    
    42   20   21 2    
    43   20   22 1    
    44   22   23 1    
    45   22   24 1    
    46   22   90 1    
    47   23   91 1    
    48   23   92 1    
    49   23   93 1    
    50   24   25 am   BACKBONE|DICT|INTERRES
    51   24   94 1    
    52   25   26 2    
    53   25   27 1    
    54   27   28 1    
    55   27   29 1    
    56   27   95 1    
    57   28   96 1    
    58   28   97 1    
    59   28   98 1    
    60   29   30 am   BACKBONE|DICT|INTERRES
    61   29   99 1    
    62   30   31 2    
    63   30   32 1    
    64   32   33 1    
    65   32   34 1    
    66   32  100 1    
    67   33  101 1    
    68   33  102 1    
    69   33  103 1    
    70   34   35 am   BACKBONE|DICT|INTERRES
    71   34  104 1    
    72   35   36 2    
    73   37   38 2    
    74   37   39 am   BACKBONE|DICT|INTERRES
    75   39   40 1    
    76   39  105 1    
    77   40   41 1    
    78   40   42 1    
    79   40  106 1    
    80   41  107 1    
    81   41  108 1    
    82   41  109 1    
    83   42   43 2    
    84   42   44 am   BACKBONE|DICT|INTERRES
    85   44   45 1    
    86   44  110 1    
    87   45   46 1    
    88   45   47 1    
    89   45  111 1    
    90   46  112 1    
    91   46  113 1    
    92   46  114 1    
    93   47   48 2    
    94   47   49 am   BACKBONE|DICT|INTERRES
    95   49   50 1    
    96   49  115 1    
    97   50   51 1    
    98   50   52 1    
    99   50  116 1    
   100   51  117 1    
   101   51  118 1    
   102   51  119 1    
   103   52   53 2    
   104   52   54 am   BACKBONE|DICT|INTERRES
   105   54   55 1    
   106   54  120 1    
   107   55   56 1    
   108   55   57 1    
   109   55  121 1    
   110   56  122 1    
   111   56  123 1    
   112   56  124 1    
   113   57   58 2    
   114   57   59 am   BACKBONE|DICT|INTERRES
   115   59   60 1    
   116   59  125 1    
   117   60   61 1    
   118   60   62 1    
   119   60  126 1    
   120   61  127 1    
   121   61  128 1    
   122   61  129 1    
   123   62   63 2    
   124   62   64 am   BACKBONE|DICT|INTERRES
   125   64   65 1    
   126   64  130 1    
   127   65   66 1    
   128   65   69 1    
   129   65  131 1    
   130   66   67 am   BACKBONE|DICT|INTERRES
   131   66   68 2    
   132   67  132 1    
   133   67  133 1    
   134   69   70 1    
   135   69  134 1    
   136   69  135 1    
   137   70   71 1    
   138   71  136 1    
   139   71  137 1    
@<TRIPOS>SUBSTRUCTURE
     1 UNK         1 GROUP             0       ****    0 ROOT    
