@<TRIPOS>MOLECULE
3R137
137   139    1
SMALL
USER_CHARGES


@<TRIPOS>ATOM
      1 CA         25.6096   -7.4364   -0.1048 C.3       0 UNK        -0.2020 
      2 C          26.0140   -6.0510   -0.5849 C.2       0 UNK         0.4855 
      3 O          26.4047   -5.2092    0.2255 O.2       0 UNK        -0.5197 
      4 N          25.9215   -5.8002   -1.8968 N.am      1 UNK        -0.4892 
      5 CA         26.2616   -4.5268   -2.5415 C.3       1 UNK         0.0835 
      6 C6         26.6543   -4.7146   -4.0324 C.3       12 UNK        -0.0855 
      7 S7         28.0404   -5.8847   -4.2613 S.3       12 UNK        -0.2931 
      8 C8         29.1567   -4.9587   -5.3772 C.3       12 UNK         0.0378 
      9 C9         29.9988   -3.8488   -4.7394 C.ar      12 UNK        -0.0802 
     10 C10        30.9210   -3.1704   -5.5449 C.ar      12 UNK        -0.0944 
     11 C11        31.7216   -2.1506   -5.0217 C.ar      12 UNK        -0.0787 
     12 C12        31.5962   -1.8033   -3.6753 C.ar      12 UNK        -0.0862 
     13 C13        30.6716   -2.4587   -2.8586 C.ar      12 UNK        -0.0733 
     14 C14        29.8925   -3.4885   -3.3899 C.ar      12 UNK        -0.0832 
     15 C15        30.5011   -2.0424   -1.4062 C.3       12 UNK         0.0240 
     16 S16        29.8677   -0.3417   -1.2675 S.3       12 UNK        -0.2522 
     17 C17        28.1967   -0.4621   -2.0048 C.3       12 UNK        -0.0967 
     18 CA         28.1243   -0.1049   -3.5171 C.3       5 UNK         0.0660 
     19 N          26.7875   -0.3799   -4.0638 N.am      5 UNK        -0.4015 
     20 C          26.5004   -0.5506   -5.3664 C.2       4 UNK         0.4946 
     21 O          27.3586   -0.5453   -6.2509 O.2       4 UNK        -0.5353 
     22 CA         25.0315   -0.7197   -5.7929 C.3       4 UNK         0.0277 
     23 CB         24.8038   -2.0791   -6.4738 C.3       4 UNK        -0.1981 
     24 N          24.0831   -0.5486   -4.6916 N.am      4 UNK        -0.4209 
     25 C          23.6051    0.6412   -4.2942 C.2       3 UNK         0.4942 
     26 O          23.8865    1.7043   -4.8484 O.2       3 UNK        -0.5208 
     27 CA         22.6696    0.6711   -3.0691 C.3       3 UNK         0.0250 
     28 CB         21.2035    0.7849   -3.5177 C.3       3 UNK        -0.1990 
     29 N          22.8069   -0.4773   -2.1682 N.am      3 UNK        -0.4232 
     30 C          23.9237   -0.8112   -1.5080 C.2       2 UNK         0.4993 
     31 O          24.9746   -0.1739   -1.5886 O.2       2 UNK        -0.5286 
     32 CA         23.8971   -2.1018   -0.6658 C.3       2 UNK         0.0209 
     33 CB         22.5173   -2.7974   -0.6084 C.3       2 UNK        -0.1931 
     34 N          24.9196   -3.0558   -1.1127 N.am      2 UNK        -0.4546 
     35 C          25.1105   -3.5159   -2.3583 C.2       1 UNK         0.5154 
     36 O          24.4101   -3.1935   -3.3203 O.2       1 UNK        -0.5181 
     37 C          28.5558    1.3452   -3.8478 C.2       5 UNK         0.5014 
     38 O          28.6133    2.1967   -2.9591 O.2       5 UNK        -0.5248 
     39 N          28.8131    1.5820   -5.1393 N.am      6 UNK        -0.4434 
     40 CA         29.2725    2.8041   -5.8034 C.3       6 UNK         0.0363 
     41 CB         28.5564    4.0806   -5.3101 C.3       6 UNK        -0.1936 
     42 C          29.0445    2.6644   -7.3140 C.2       6 UNK         0.5081 
     43 O          29.9129    3.0456   -8.0976 O.2       6 UNK        -0.5248 
     44 N          27.8726    2.1382   -7.6958 N.am      7 UNK        -0.4718 
     45 CA         27.4583    1.9656   -9.0879 C.3       7 UNK         0.0273 
     46 CB         25.9258    1.8723   -9.1577 C.3       7 UNK        -0.1935 
     47 C          28.0996    0.7393   -9.7513 C.2       7 UNK         0.5018 
     48 O          28.4709    0.8201  -10.9235 O.2       7 UNK        -0.5186 
     49 N          28.2191   -0.3693   -9.0053 N.am      8 UNK        -0.4240 
     50 CA         28.7940   -1.6346   -9.4675 C.3       8 UNK         0.0235 
     51 CB         28.6464   -2.6915   -8.3644 C.3       8 UNK        -0.2000 
     52 C          30.2624   -1.4612   -9.8843 C.2       8 UNK         0.4941 
     53 O          31.1023   -1.1589   -9.0375 O.2       8 UNK        -0.5273 
     54 N          30.5211   -1.5856  -11.1944 N.am      9 UNK        -0.4262 
     55 CA         31.7978   -1.3172  -11.8729 C.3       9 UNK         0.0264 
     56 CB         32.8775   -2.3284  -11.4293 C.3       9 UNK        -0.1955 
     57 C          32.2820    0.1463  -11.7515 C.2       9 UNK         0.5031 
     58 O          33.4627    0.4069  -11.9902 O.2       9 UNK        -0.5390 
     59 N          31.3718    1.0695  -11.3963 N.am      10 UNK        -0.4204 
     60 CA         31.5914    2.5002  -11.1547 C.3       10 UNK         0.0237 
     61 CB         31.8409    3.2362  -12.4885 C.3       10 UNK        -0.1985 
     62 C          32.6754    2.7899  -10.0939 C.2       10 UNK         0.4970 
     63 O          33.4637    3.7220  -10.2689 O.2       10 UNK        -0.4914 
     64 N          32.7118    1.9840   -9.0224 N.am      11 UNK        -0.4285 
     65 CA         33.6791    2.1167   -7.9217 C.3       11 UNK         0.1007 
     66 C          33.5122    3.3741   -7.0177 C.2       11 UNK         0.5703 
     67 N          32.3962    4.0904   -7.0678 N.am      11 UNK        -0.7361 
     68 O          34.4273    3.7181   -6.2729 O.2       11 UNK        -0.4986 
     69 C69        33.8118    0.8071   -7.1036 C.3       12 UNK        -0.0947 
     70 S70        32.2977    0.2888   -6.2257 S.3       12 UNK        -0.2240 
     71 C71        32.7451   -1.4443   -5.8975 C.3       12 UNK         0.0194 
     72 H72        25.2937   -8.0774   -0.9276 H         1 UNK         0.0906 
     73 H73        26.4481   -7.9182    0.3974 H         1 UNK         0.0906 
     74 H74        24.7850   -7.3617    0.6036 H         1 UNK         0.0906 
     75 H75        25.5886   -6.5234   -2.5190 H         1 UNK         0.3140 
     76 H76        27.1228   -4.1016   -2.0246 H         1 UNK         0.1085 
     77 H77        25.8058   -5.0829   -4.6123 H         1 UNK         0.0836 
     78 H78        26.9267   -3.7514   -4.4687 H         1 UNK         0.0836 
     79 H79        28.5635   -4.5386   -6.1896 H         1 UNK         0.0731 
     80 H80        29.8350   -5.6795   -5.8362 H         1 UNK         0.0731 
     81 H81        31.0234   -3.4421   -6.5869 H         1 UNK         0.1312 
     82 H82        32.2066   -1.0091   -3.2668 H         1 UNK         0.1406 
     83 H83        29.2071   -4.0044   -2.7384 H         1 UNK         0.1631 
     84 H84        31.4668   -2.1020   -0.9025 H         1 UNK         0.0717 
     85 H85        29.8330   -2.7204   -0.8727 H         1 UNK         0.0717 
     86 H86        27.8160   -1.4709   -1.8406 H         1 UNK         0.0934 
     87 H87        27.5413    0.1968   -1.4333 H         1 UNK         0.0934 
     88 H88        28.8228   -0.7629   -4.0370 H         1 UNK         0.0739 
     89 H89        26.0255   -0.3382   -3.3952 H         1 UNK         0.3093 
     90 H90        24.8348    0.0489   -6.5424 H         1 UNK         0.0818 
     91 H91        25.4259   -2.1762   -7.3641 H         1 UNK         0.0819 
     92 H92        25.0464   -2.9131   -5.8177 H         1 UNK         0.0819 
     93 H93        23.7680   -2.1943   -6.7927 H         1 UNK         0.0819 
     94 H94        23.8475   -1.3855   -4.1665 H         1 UNK         0.3041 
     95 H95        22.9223    1.5662   -2.4967 H         1 UNK         0.0784 
     96 H96        21.0593    1.6505   -4.1662 H         1 UNK         0.0793 
     97 H97        20.8823   -0.0962   -4.0748 H         1 UNK         0.0793 
     98 H98        20.5346    0.9077   -2.6656 H         1 UNK         0.0793 
     99 H99        21.9990   -1.0751   -2.0700 H         1 UNK         0.3024 
    100 H100       24.1645   -1.8036    0.3494 H         1 UNK         0.1171 
    101 H101       21.7521   -2.1323   -0.2056 H         1 UNK         0.0786 
    102 H102       22.1853   -3.1402   -1.5893 H         1 UNK         0.0786 
    103 H103       22.5508   -3.6693    0.0453 H         1 UNK         0.0786 
    104 H104       25.5245   -3.4310   -0.3889 H         1 UNK         0.2977 
    105 H105       28.6760    0.7907   -5.7645 H         1 UNK         0.3127 
    106 H106       30.3440    2.8976   -5.6229 H         1 UNK         0.0770 
    107 H107       27.4723    3.9627   -5.3073 H         1 UNK         0.0814 
    108 H108       28.7909    4.9337   -5.9486 H         1 UNK         0.0814 
    109 H109       28.8692    4.3550   -4.3033 H         1 UNK         0.0814 
    110 H110       27.2167    1.8489   -6.9847 H         1 UNK         0.2983 
    111 H111       27.7696    2.8474   -9.6532 H         1 UNK         0.0947 
    112 H112       25.5885    1.7986  -10.1926 H         1 UNK         0.0806 
    113 H113       25.4529    2.7549   -8.7265 H         1 UNK         0.0806 
    114 H114       25.5481    0.9958   -8.6309 H         1 UNK         0.0806 
    115 H115       27.9141   -0.3452   -8.0352 H         1 UNK         0.3000 
    116 H116       28.2168   -1.9688  -10.3321 H         1 UNK         0.0850 
    117 H117       29.1492   -3.6209   -8.6348 H         1 UNK         0.0810 
    118 H118       27.5991   -2.9281   -8.1795 H         1 UNK         0.0810 
    119 H119       29.0759   -2.3401   -7.4269 H         1 UNK         0.0810 
    120 H120       29.7473   -1.8017  -11.8086 H         1 UNK         0.3040 
    121 H121       31.6128   -1.4800  -12.9356 H         1 UNK         0.0766 
    122 H122       33.1774   -2.1716  -10.3927 H         1 UNK         0.0812 
    123 H123       33.7751   -2.2383  -12.0422 H         1 UNK         0.0812 
    124 H124       32.5243   -3.3550  -11.5252 H         1 UNK         0.0812 
    125 H125       30.4171    0.7564  -11.2396 H         1 UNK         0.3205 
    126 H126       30.6576    2.8822  -10.7397 H         1 UNK         0.0754 
    127 H127       31.8828    4.3159  -12.3393 H         1 UNK         0.0769 
    128 H128       31.0419    3.0412  -13.2038 H         1 UNK         0.0769 
    129 H129       32.7830    2.9330  -12.9465 H         1 UNK         0.0769 
    130 H130       32.0277    1.2452   -8.9275 H         1 UNK         0.2981 
    131 H131       34.6494    2.2585   -8.4016 H         1 UNK         0.0541 
    132 H132       32.3109    4.9127   -6.4935 H         1 UNK         0.3459 
    133 H133       31.6140    3.7788   -7.6360 H         1 UNK         0.3459 
    134 H134       34.6184    0.8943   -6.3734 H         1 UNK         0.0612 
    135 H135       34.1094    0.0008   -7.7762 H         1 UNK         0.0612 
    136 H136       33.7183   -1.4780   -5.4056 H         1 UNK         0.0624 
    137 H137       32.8595   -1.9644   -6.8500 H         1 UNK         0.0624 
@<TRIPOS>BOND
     1    1    2 1    
     2    1   72 1    
     3    1   73 1    
     4    1   74 1    
     5    2    3 2    
     6    2    4 am   BACKBONE|DICT|INTERRES
     7    4    5 1    
     8    4   75 1    
     9    5    6 1    
    10    5   35 1    
    11    5   76 1    
    12    6    7 1    
    13    6   77 1    
    14    6   78 1    
    15    7    8 1    
    16    8    9 1    
    17    8   79 1    
    18    8   80 1    
    19    9   10 ar   
    20    9   14 ar   
    21   10   11 ar   
    22   10   81 1    
    23   11   12 ar   
    24   11   71 1    
    25   12   13 ar   
    26   12   82 1    
    27   13   14 ar   
    28   13   15 1    
    29   14   83 1    
    30   15   16 1    
    31   15   84 1    
    32   15   85 1    
    33   16   17 1    
    34   17   18 1    
    35   17   86 1    
    36   17   87 1    
    37   18   19 1    
    38   18   37 1    
    39   18   88 1    
    40   19   20 am   BACKBONE|DICT|INTERRES
    41   19   89 1    
    42   20   21 2    
    43   20   22 1    
    44   22   23 1    
    45   22   24 1    
    46   22   90 1    
    47   23   91 1    
    48   23   92 1    
    49   23   93 1    
    50   24   25 am   BACKBONE|DICT|INTERRES
    51   24   94 1    
    52   25   26 2    
    53   25   27 1    
    54   27   28 1    
    55   27   29 1    
    56   27   95 1    
    57   28   96 1    
    58   28   97 1    
    59   28   98 1    
    60   29   30 am   BACKBONE|DICT|INTERRES
    61   29   99 1    
    62   30   31 2    
    63   30   32 1    
    64   32   33 1    
    65   32   34 1    
    66   32  100 1    
    67   33  101 1    
    68   33  102 1    
    69   33  103 1    
    70   34   35 am   BACKBONE|DICT|INTERRES
    71   34  104 1    
    72   35   36 2    
    73   37   38 2    
    74   37   39 am   BACKBONE|DICT|INTERRES
    75   39   40 1    
    76   39  105 1    
    77   40   41 1    
    78   40   42 1    
    79   40  106 1    
    80   41  107 1    
    81   41  108 1    
    82   41  109 1    
    83   42   43 2    
    84   42   44 am   BACKBONE|DICT|INTERRES
    85   44   45 1    
    86   44  110 1    
    87   45   46 1    
    88   45   47 1    
    89   45  111 1    
    90   46  112 1    
    91   46  113 1    
    92   46  114 1    
    93   47   48 2    
    94   47   49 am   BACKBONE|DICT|INTERRES
    95   49   50 1    
    96   49  115 1    
    97   50   51 1    
    98   50   52 1    
    99   50  116 1    
   100   51  117 1    
   101   51  118 1    
   102   51  119 1    
   103   52   53 2    
   104   52   54 am   BACKBONE|DICT|INTERRES
   105   54   55 1    
   106   54  120 1    
   107   55   56 1    
   108   55   57 1    
   109   55  121 1    
   110   56  122 1    
   111   56  123 1    
   112   56  124 1    
   113   57   58 2    
   114   57   59 am   BACKBONE|DICT|INTERRES
   115   59   60 1    
   116   59  125 1    
   117   60   61 1    
   118   60   62 1    
   119   60  126 1    
   120   61  127 1    
   121   61  128 1    
   122   61  129 1    
   123   62   63 2    
   124   62   64 am   BACKBONE|DICT|INTERRES
   125   64   65 1    
   126   64  130 1    
   127   65   66 1    
   128   65   69 1    
   129   65  131 1    
   130   66   67 am   BACKBONE|DICT|INTERRES
   131   66   68 2    
   132   67  132 1    
   133   67  133 1    
   134   69   70 1    
   135   69  134 1    
   136   69  135 1    
   137   70   71 1    
   138   71  136 1    
   139   71  137 1    
@<TRIPOS>SUBSTRUCTURE
     1 UNK         1 GROUP             0       ****    0 ROOT    
