@<TRIPOS>MOLECULE
3R137
137   139    1
SMALL
USER_CHARGES


@<TRIPOS>ATOM
      1 CA         28.4775   -1.0473    3.5383 C.3       0 UNK        -0.2020 
      2 C          28.1735   -0.8053    2.0671 C.2       0 UNK         0.4855 
      3 O          27.8851    0.3281    1.6802 O.2       0 UNK        -0.5197 
      4 N          28.2451   -1.8585    1.2440 N.am      1 UNK        -0.4892 
      5 CA         27.9425   -1.8215   -0.1925 C.3       1 UNK         0.0835 
      6 C6         28.5626   -3.0261   -0.9470 C.3       12 UNK        -0.0855 
      7 S7         30.3781   -3.0607   -0.7762 S.3       12 UNK        -0.2931 
      8 C8         30.8142   -4.5289   -1.7589 C.3       12 UNK         0.0378 
      9 C9         30.8350   -4.2381   -3.2533 C.ar      12 UNK        -0.0802 
     10 C10        31.8433   -3.4331   -3.7928 C.ar      12 UNK        -0.0944 
     11 C11        31.9067   -3.1994   -5.1687 C.ar      12 UNK        -0.0787 
     12 C12        30.9440   -3.7705   -6.0053 C.ar      12 UNK        -0.0862 
     13 C13        29.9326   -4.5849   -5.4853 C.ar      12 UNK        -0.0733 
     14 C14        29.8858   -4.8148   -4.1038 C.ar      12 UNK        -0.0832 
     15 C15        28.9604   -5.2556   -6.4561 C.3       12 UNK         0.0240 
     16 S16        27.2808   -5.5628   -5.8078 S.3       12 UNK        -0.2522 
     17 C17        26.6754   -3.8896   -5.4161 C.3       12 UNK        -0.0967 
     18 CA         26.5273   -2.9666   -6.6628 C.3       5 UNK         0.0660 
     19 N          25.2728   -2.2205   -6.6340 N.am      5 UNK        -0.4015 
     20 C          24.2886   -2.3255   -7.5376 C.2       4 UNK         0.4946 
     21 O          24.3381   -3.0668   -8.5201 O.2       4 UNK        -0.5353 
     22 CA         23.0128   -1.4857   -7.3169 C.3       4 UNK         0.0277 
     23 CB         21.8078   -2.3999   -7.0355 C.3       4 UNK        -0.1981 
     24 N          23.1159   -0.5009   -6.2370 N.am      4 UNK        -0.4209 
     25 C          23.8766    0.6004   -6.2739 C.2       3 UNK         0.4942 
     26 O          24.5687    0.9187   -7.2396 O.2       3 UNK        -0.5208 
     27 CA         23.9333    1.4375   -4.9834 C.3       3 UNK         0.0250 
     28 CB         22.7886    2.4620   -4.9517 C.3       3 UNK        -0.1990 
     29 N          23.9135    0.6282   -3.7555 N.am      3 UNK        -0.4232 
     30 C          24.8455   -0.2821   -3.4436 C.2       2 UNK         0.4993 
     31 O          25.7913   -0.5704   -4.1823 O.2       2 UNK        -0.5286 
     32 CA         24.7010   -1.0342   -2.1207 C.3       2 UNK         0.0209 
     33 CB         23.9279   -2.3496   -2.3373 C.3       2 UNK        -0.1931 
     34 N          26.0580   -1.2966   -1.6505 N.am      2 UNK        -0.4546 
     35 C          26.4209   -1.7276   -0.4401 C.2       1 UNK         0.5154 
     36 O          25.6182   -2.0467    0.4420 O.2       1 UNK        -0.5181 
     37 C          27.6967   -1.9781   -6.8013 C.2       5 UNK         0.5014 
     38 O          28.3601   -1.9553   -7.8376 O.2       5 UNK        -0.5248 
     39 N          27.9370   -1.1850   -5.7508 N.am      6 UNK        -0.4434 
     40 CA         29.1359   -0.3706   -5.5827 C.3       6 UNK         0.0363 
     41 CB         29.3093   -0.0012   -4.1011 C.3       6 UNK        -0.1936 
     42 C          29.1403    0.8744   -6.4728 C.2       6 UNK         0.5081 
     43 O          30.1496    1.1449   -7.1222 O.2       6 UNK        -0.5248 
     44 N          28.0099    1.5935   -6.5247 N.am      7 UNK        -0.4718 
     45 CA         27.8500    2.7639   -7.3957 C.3       7 UNK         0.0273 
     46 CB         26.6848    3.6419   -6.9129 C.3       7 UNK        -0.1935 
     47 C          27.6864    2.3702   -8.8739 C.2       7 UNK         0.5018 
     48 O          28.0980    3.1362   -9.7445 O.2       7 UNK        -0.5186 
     49 N          27.1375    1.1727   -9.1285 N.am      8 UNK        -0.4240 
     50 CA         27.0662    0.5506  -10.4524 C.3       8 UNK         0.0235 
     51 CB         26.1281   -0.6657  -10.4076 C.3       8 UNK        -0.2000 
     52 C          28.4569    0.1636  -10.9865 C.2       8 UNK         0.4941 
     53 O          28.7573    0.4514  -12.1456 O.2       8 UNK        -0.5273 
     54 N          29.2911   -0.4450  -10.1289 N.am      9 UNK        -0.4262 
     55 CA         30.7027   -0.7356  -10.4060 C.3       9 UNK         0.0264 
     56 CB         31.2353   -1.7147   -9.3468 C.3       9 UNK        -0.1955 
     57 C          31.5858    0.5259  -10.4492 C.2       9 UNK         0.5031 
     58 O          32.6221    0.5100  -11.1148 O.2       9 UNK        -0.5390 
     59 N          31.1634    1.5746   -9.7288 N.am      10 UNK        -0.4204 
     60 CA         31.8367    2.8561   -9.5005 C.3       10 UNK         0.0237 
     61 CB         32.0290    3.6363  -10.8187 C.3       10 UNK        -0.1985 
     62 C          33.1318    2.6998   -8.6809 C.2       10 UNK         0.4970 
     63 O          34.1048    3.4152   -8.9296 O.2       10 UNK        -0.4914 
     64 N          33.1210    1.7672   -7.7197 N.am      11 UNK        -0.4285 
     65 CA         34.2242    1.5274   -6.7804 C.3       11 UNK         0.1007 
     66 C          34.2206    2.5170   -5.5807 C.2       11 UNK         0.5703 
     67 N          35.3100    2.5759   -4.8258 N.am      11 UNK        -0.7361 
     68 O          33.2501    3.2269   -5.3201 O.2       11 UNK        -0.4986 
     69 C69        34.2992    0.0385   -6.3475 C.3       12 UNK        -0.0947 
     70 S70        32.8007   -0.5954   -5.5245 S.3       12 UNK        -0.2240 
     71 C71        33.0472   -2.3804   -5.7558 C.3       12 UNK         0.0194 
     72 H72        27.6113   -0.7896    4.1473 H         1 UNK         0.0906 
     73 H73        28.7336   -2.0880    3.7364 H         1 UNK         0.0906 
     74 H74        29.3147   -0.4262    3.8558 H         1 UNK         0.0906 
     75 H75        28.4773   -2.7683    1.6157 H         1 UNK         0.3140 
     76 H76        28.3874   -0.9091   -0.5979 H         1 UNK         0.1085 
     77 H77        28.1517   -3.9676   -0.5769 H         1 UNK         0.0836 
     78 H78        28.3268   -2.9824   -2.0123 H         1 UNK         0.0836 
     79 H79        31.8046   -4.8698   -1.4538 H         1 UNK         0.0731 
     80 H80        30.1284   -5.3445   -1.5239 H         1 UNK         0.0731 
     81 H81        32.5893   -2.9991   -3.1408 H         1 UNK         0.1312 
     82 H82        30.9976   -3.6014   -7.0717 H         1 UNK         0.1406 
     83 H83        29.1245   -5.4617   -3.6902 H         1 UNK         0.1631 
     84 H84        28.8772   -4.6730   -7.3745 H         1 UNK         0.0717 
     85 H85        29.3882   -6.2150   -6.7491 H         1 UNK         0.0717 
     86 H86        25.7019   -4.0374   -4.9458 H         1 UNK         0.0934 
     87 H87        27.2977   -3.4621   -4.6279 H         1 UNK         0.0934 
     88 H88        26.5493   -3.5902   -7.5589 H         1 UNK         0.0739 
     89 H89        25.1721   -1.5549   -5.8766 H         1 UNK         0.3093 
     90 H90        22.8234   -0.9459   -8.2473 H         1 UNK         0.0818 
     91 H91        20.8841   -1.8268   -6.9530 H         1 UNK         0.0819 
     92 H92        21.6658   -3.1210   -7.8418 H         1 UNK         0.0819 
     93 H93        21.9374   -2.9662   -6.1123 H         1 UNK         0.0819 
     94 H94        22.5887   -0.6897   -5.3968 H         1 UNK         0.3041 
     95 H95        24.8772    1.9861   -4.9944 H         1 UNK         0.0784 
     96 H96        22.7998    3.0863   -5.8465 H         1 UNK         0.0793 
     97 H97        21.8120    1.9786   -4.9035 H         1 UNK         0.0793 
     98 H98        22.8766    3.1291   -4.0940 H         1 UNK         0.0793 
     99 H99        23.1592    0.8045   -3.1066 H         1 UNK         0.3024 
    100 H100       24.1833   -0.4046   -1.3937 H         1 UNK         0.1171 
    101 H101       23.7961   -2.8960   -1.4035 H         1 UNK         0.0786 
    102 H102       22.9317   -2.1584   -2.7381 H         1 UNK         0.0786 
    103 H103       24.4420   -3.0084   -3.0379 H         1 UNK         0.0786 
    104 H104       26.7651   -1.0546   -2.3331 H         1 UNK         0.2977 
    105 H105       27.2489   -1.1386   -5.0015 H         1 UNK         0.3127 
    106 H106       29.9882   -0.9833   -5.8782 H         1 UNK         0.0770 
    107 H107       28.4587    0.5642   -3.7193 H         1 UNK         0.0814 
    108 H108       30.2015    0.6097   -3.9567 H         1 UNK         0.0814 
    109 H109       29.4301   -0.8935   -3.4861 H         1 UNK         0.0814 
    110 H110       27.2123    1.2985   -5.9794 H         1 UNK         0.2983 
    111 H111       28.7605    3.3635   -7.3218 H         1 UNK         0.0947 
    112 H112       26.6506    4.5754   -7.4761 H         1 UNK         0.0806 
    113 H113       26.7911    3.9041   -5.8602 H         1 UNK         0.0806 
    114 H114       25.7199    3.1571   -7.0456 H         1 UNK         0.0806 
    115 H115       26.7740    0.6425   -8.3490 H         1 UNK         0.3000 
    116 H116       26.6378    1.2825  -11.1407 H         1 UNK         0.0850 
    117 H117       26.0216   -1.1113  -11.3974 H         1 UNK         0.0810 
    118 H118       25.1303   -0.3845  -10.0698 H         1 UNK         0.0810 
    119 H119       26.4989   -1.4440   -9.7405 H         1 UNK         0.0810 
    120 H120       28.9387   -0.7420   -9.2217 H         1 UNK         0.3040 
    121 H121       30.7664   -1.2179  -11.3836 H         1 UNK         0.0766 
    122 H122       30.6769   -2.6508   -9.3601 H         1 UNK         0.0812 
    123 H123       31.1653   -1.2970   -8.3412 H         1 UNK         0.0812 
    124 H124       32.2831   -1.9582   -9.5273 H         1 UNK         0.0812 
    125 H125       30.3577    1.4161   -9.1336 H         1 UNK         0.3205 
    126 H126       31.1582    3.4378   -8.8748 H         1 UNK         0.0754 
    127 H127       32.3899    4.6470  -10.6248 H         1 UNK         0.0769 
    128 H128       31.0889    3.7274  -11.3631 H         1 UNK         0.0769 
    129 H129       32.7532    3.1539  -11.4756 H         1 UNK         0.0769 
    130 H130       32.2507    1.2893   -7.5139 H         1 UNK         0.2981 
    131 H131       35.1522    1.7303   -7.3186 H         1 UNK         0.0541 
    132 H132       36.1146    2.0019   -5.0235 H         1 UNK         0.3459 
    133 H133       35.3270    3.2087   -4.0415 H         1 UNK         0.3459 
    134 H134       35.1517   -0.1307   -5.6878 H         1 UNK         0.0612 
    135 H135       34.4874   -0.5724   -7.2318 H         1 UNK         0.0612 
    136 H136       33.9869   -2.6754   -5.2865 H         1 UNK         0.0624 
    137 H137       33.1546   -2.5914   -6.8209 H         1 UNK         0.0624 
@<TRIPOS>BOND
     1    1    2 1    
     2    1   72 1    
     3    1   73 1    
     4    1   74 1    
     5    2    3 2    
     6    2    4 am   BACKBONE|DICT|INTERRES
     7    4    5 1    
     8    4   75 1    
     9    5    6 1    
    10    5   35 1    
    11    5   76 1    
    12    6    7 1    
    13    6   77 1    
    14    6   78 1    
    15    7    8 1    
    16    8    9 1    
    17    8   79 1    
    18    8   80 1    
    19    9   10 ar   
    20    9   14 ar   
    21   10   11 ar   
    22   10   81 1    
    23   11   12 ar   
    24   11   71 1    
    25   12   13 ar   
    26   12   82 1    
    27   13   14 ar   
    28   13   15 1    
    29   14   83 1    
    30   15   16 1    
    31   15   84 1    
    32   15   85 1    
    33   16   17 1    
    34   17   18 1    
    35   17   86 1    
    36   17   87 1    
    37   18   19 1    
    38   18   37 1    
    39   18   88 1    
    40   19   20 am   BACKBONE|DICT|INTERRES
    41   19   89 1    
    42   20   21 2    
    43   20   22 1    
    44   22   23 1    
    45   22   24 1    
    46   22   90 1    
    47   23   91 1    
    48   23   92 1    
    49   23   93 1    
    50   24   25 am   BACKBONE|DICT|INTERRES
    51   24   94 1    
    52   25   26 2    
    53   25   27 1    
    54   27   28 1    
    55   27   29 1    
    56   27   95 1    
    57   28   96 1    
    58   28   97 1    
    59   28   98 1    
    60   29   30 am   BACKBONE|DICT|INTERRES
    61   29   99 1    
    62   30   31 2    
    63   30   32 1    
    64   32   33 1    
    65   32   34 1    
    66   32  100 1    
    67   33  101 1    
    68   33  102 1    
    69   33  103 1    
    70   34   35 am   BACKBONE|DICT|INTERRES
    71   34  104 1    
    72   35   36 2    
    73   37   38 2    
    74   37   39 am   BACKBONE|DICT|INTERRES
    75   39   40 1    
    76   39  105 1    
    77   40   41 1    
    78   40   42 1    
    79   40  106 1    
    80   41  107 1    
    81   41  108 1    
    82   41  109 1    
    83   42   43 2    
    84   42   44 am   BACKBONE|DICT|INTERRES
    85   44   45 1    
    86   44  110 1    
    87   45   46 1    
    88   45   47 1    
    89   45  111 1    
    90   46  112 1    
    91   46  113 1    
    92   46  114 1    
    93   47   48 2    
    94   47   49 am   BACKBONE|DICT|INTERRES
    95   49   50 1    
    96   49  115 1    
    97   50   51 1    
    98   50   52 1    
    99   50  116 1    
   100   51  117 1    
   101   51  118 1    
   102   51  119 1    
   103   52   53 2    
   104   52   54 am   BACKBONE|DICT|INTERRES
   105   54   55 1    
   106   54  120 1    
   107   55   56 1    
   108   55   57 1    
   109   55  121 1    
   110   56  122 1    
   111   56  123 1    
   112   56  124 1    
   113   57   58 2    
   114   57   59 am   BACKBONE|DICT|INTERRES
   115   59   60 1    
   116   59  125 1    
   117   60   61 1    
   118   60   62 1    
   119   60  126 1    
   120   61  127 1    
   121   61  128 1    
   122   61  129 1    
   123   62   63 2    
   124   62   64 am   BACKBONE|DICT|INTERRES
   125   64   65 1    
   126   64  130 1    
   127   65   66 1    
   128   65   69 1    
   129   65  131 1    
   130   66   67 am   BACKBONE|DICT|INTERRES
   131   66   68 2    
   132   67  132 1    
   133   67  133 1    
   134   69   70 1    
   135   69  134 1    
   136   69  135 1    
   137   70   71 1    
   138   71  136 1    
   139   71  137 1    
@<TRIPOS>SUBSTRUCTURE
     1 UNK         1 GROUP             0       ****    0 ROOT    
