@<TRIPOS>MOLECULE
3R137
137   139    1
SMALL
USER_CHARGES


@<TRIPOS>ATOM
      1 CA         30.3642    1.3747   -3.3342 C.3       0 UNK        -0.2020 
      2 C          29.6045    0.6134   -2.2575 C.2       0 UNK         0.4855 
      3 O          29.2538    1.2017   -1.2353 O.2       0 UNK        -0.5197 
      4 N          29.3646   -0.6868   -2.4791 N.am      1 UNK        -0.4892 
      5 CA         28.7047   -1.6212   -1.5574 C.3       1 UNK         0.0835 
      6 C6         29.5407   -1.8760   -0.2702 C.3       12 UNK        -0.0855 
      7 S7         29.1763   -3.4994    0.4850 S.3       12 UNK        -0.2931 
      8 C8         30.5199   -4.5378   -0.1789 C.3       12 UNK         0.0378 
      9 C9         30.4856   -4.6086   -1.6992 C.ar      12 UNK        -0.0802 
     10 C10        31.4871   -3.9929   -2.4566 C.ar      12 UNK        -0.0944 
     11 C11        31.4456   -4.0349   -3.8529 C.ar      12 UNK        -0.0787 
     12 C12        30.3946   -4.6964   -4.4920 C.ar      12 UNK        -0.0862 
     13 C13        29.3777   -5.3000   -3.7461 C.ar      12 UNK        -0.0733 
     14 C14        29.4381   -5.2691   -2.3498 C.ar      12 UNK        -0.0832 
     15 C15        28.2033   -5.9696   -4.4449 C.3       12 UNK         0.0240 
     16 S16        26.7314   -4.8953   -4.4479 S.3       12 UNK        -0.2522 
     17 C17        27.2302   -3.5631   -5.5939 C.3       12 UNK        -0.0967 
     18 CA         26.3172   -3.4601   -6.8453 C.3       5 UNK         0.0660 
     19 N          24.9229   -3.2373   -6.4639 N.am      5 UNK        -0.4015 
     20 C          23.8517   -3.8193   -7.0157 C.2       4 UNK         0.4946 
     21 O          23.9171   -4.6616   -7.9132 O.2       4 UNK        -0.5353 
     22 CA         22.4647   -3.4215   -6.4692 C.3       4 UNK         0.0277 
     23 CB         21.8942   -4.5494   -5.5927 C.3       4 UNK        -0.1981 
     24 N          22.4811   -2.1810   -5.6892 N.am      4 UNK        -0.4209 
     25 C          22.5382   -0.9477   -6.2116 C.2       3 UNK         0.4942 
     26 O          22.4541   -0.7131   -7.4174 O.2       3 UNK        -0.5208 
     27 CA         22.7315    0.2266   -5.2291 C.3       3 UNK         0.0250 
     28 CB         21.3945    0.9447   -4.9823 C.3       3 UNK        -0.1990 
     29 N          23.3283   -0.1377   -3.9350 N.am      3 UNK        -0.4232 
     30 C          24.5444   -0.6771   -3.7761 C.2       2 UNK         0.4993 
     31 O          25.2853   -0.9759   -4.7146 O.2       2 UNK        -0.5286 
     32 CA         24.9856   -0.9905   -2.3438 C.3       2 UNK         0.0209 
     33 CB         24.2340   -2.2242   -1.8043 C.3       2 UNK        -0.1931 
     34 N          26.4230   -1.2512   -2.3542 N.am      2 UNK        -0.4546 
     35 C          27.2301   -1.2405   -1.2884 C.2       1 UNK         0.5154 
     36 O          26.8476   -0.9438   -0.1540 O.2       1 UNK        -0.5181 
     37 C          26.7761   -2.3106   -7.7675 C.2       5 UNK         0.5014 
     38 O          26.0074   -1.3890   -8.0547 O.2       5 UNK        -0.5248 
     39 N          28.0509   -2.3407   -8.1813 N.am      6 UNK        -0.4434 
     40 CA         28.7227   -1.3030   -8.9760 C.3       6 UNK         0.0363 
     41 CB         29.9884   -1.9086   -9.6112 C.3       6 UNK        -0.1936 
     42 C          29.0336   -0.0076   -8.1894 C.2       6 UNK         0.5081 
     43 O          30.0670    0.6217   -8.4262 O.2       6 UNK        -0.5248 
     44 N          28.1394    0.3979   -7.2776 N.am      7 UNK        -0.4718 
     45 CA         28.2620    1.6026   -6.4523 C.3       7 UNK         0.0273 
     46 CB         27.1994    1.5889   -5.3450 C.3       7 UNK        -0.1935 
     47 C          28.2015    2.9070   -7.2603 C.2       7 UNK         0.5018 
     48 O          28.8293    3.8861   -6.8597 O.2       7 UNK        -0.5186 
     49 N          27.5301    2.8779   -8.4209 N.am      8 UNK        -0.4240 
     50 CA         27.5223    3.9586   -9.4137 C.3       8 UNK         0.0235 
     51 CB         26.5228    3.6126  -10.5292 C.3       8 UNK        -0.2000 
     52 C          28.9128    4.2585  -10.0104 C.2       8 UNK         0.4941 
     53 O          29.1509    5.3883  -10.4377 O.2       8 UNK        -0.5273 
     54 N          29.8041    3.2574  -10.0049 N.am      9 UNK        -0.4262 
     55 CA         31.2112    3.3673  -10.3915 C.3       9 UNK         0.0264 
     56 CB         31.5408    2.2084  -11.3503 C.3       9 UNK        -0.1955 
     57 C          32.1443    3.3392   -9.1649 C.2       9 UNK         0.5031 
     58 O          33.3585    3.2414   -9.3479 O.2       9 UNK        -0.5390 
     59 N          31.5809    3.3745   -7.9446 N.am      10 UNK        -0.4204 
     60 CA         32.2507    3.2317   -6.6443 C.3       10 UNK         0.0237 
     61 CB         33.0471    4.5109   -6.3116 C.3       10 UNK        -0.1985 
     62 C          33.1011    1.9477   -6.5303 C.2       10 UNK         0.4970 
     63 O          34.1820    1.9847   -5.9400 O.2       10 UNK        -0.4914 
     64 N          32.6105    0.8507   -7.1270 N.am      11 UNK        -0.4285 
     65 CA         33.3115   -0.4333   -7.3041 C.3       11 UNK         0.1007 
     66 C          34.5394   -0.3779   -8.2678 C.2       11 UNK         0.5703 
     67 N          34.7601    0.6899   -9.0263 N.am      11 UNK        -0.7361 
     68 O          35.2934   -1.3434   -8.3654 O.2       11 UNK        -0.4986 
     69 C69        33.6343   -1.1508   -5.9597 C.3       12 UNK        -0.0947 
     70 S70        32.1367   -1.6345   -5.0366 S.3       12 UNK        -0.2240 
     71 C71        32.5382   -3.3709   -4.6728 C.3       12 UNK         0.0194 
     72 H72        31.3238    1.7137   -2.9448 H         1 UNK         0.0906 
     73 H73        30.5573    0.7583   -4.2108 H         1 UNK         0.0906 
     74 H74        29.7969    2.2508   -3.6472 H         1 UNK         0.0906 
     75 H75        29.7005   -1.1027   -3.3375 H         1 UNK         0.3140 
     76 H76        28.6595   -2.5603   -2.1094 H         1 UNK         0.1085 
     77 H77        29.3818   -1.0890    0.4692 H         1 UNK         0.0836 
     78 H78        30.6062   -1.8408   -0.5021 H         1 UNK         0.0836 
     79 H79        30.4250   -5.5448    0.2298 H         1 UNK         0.0731 
     80 H80        31.4786   -4.1538    0.1735 H         1 UNK         0.0731 
     81 H81        32.2964   -3.4733   -1.9617 H         1 UNK         0.1312 
     82 H82        30.3649   -4.7281   -5.5723 H         1 UNK         0.1406 
     83 H83        28.6518   -5.7310   -1.7676 H         1 UNK         0.1631 
     84 H84        27.9586   -6.9019   -3.9338 H         1 UNK         0.0717 
     85 H85        28.4605   -6.2419   -5.4698 H         1 UNK         0.0717 
     86 H86        27.2380   -2.6260   -5.0370 H         1 UNK         0.0934 
     87 H87        28.2624   -3.7292   -5.8955 H         1 UNK         0.0934 
     88 H88        26.4021   -4.3887   -7.4134 H         1 UNK         0.0739 
     89 H89        24.7901   -2.4797   -5.8010 H         1 UNK         0.3093 
     90 H90        21.8022   -3.2859   -7.3269 H         1 UNK         0.0818 
     91 H91        22.5188   -4.7369   -4.7182 H         1 UNK         0.0819 
     92 H92        20.8883   -4.3131   -5.2449 H         1 UNK         0.0819 
     93 H93        21.8299   -5.4837   -6.1523 H         1 UNK         0.0819 
     94 H94        22.5323   -2.2752   -4.6857 H         1 UNK         0.3041 
     95 H95        23.4127    0.9308   -5.7119 H         1 UNK         0.0784 
     96 H96        20.9389    1.2574   -5.9231 H         1 UNK         0.0793 
     97 H97        20.6779    0.2997   -4.4722 H         1 UNK         0.0793 
     98 H98        21.5303    1.8422   -4.3783 H         1 UNK         0.0793 
     99 H99        22.7732    0.0615   -3.1146 H         1 UNK         0.3024 
    100 H100       24.7823   -0.1193   -1.7168 H         1 UNK         0.1171 
    101 H101       24.4272   -3.1091   -2.4129 H         1 UNK         0.0786 
    102 H102       23.1557   -2.0612   -1.7938 H         1 UNK         0.0786 
    103 H103       24.5294   -2.4554   -0.7808 H         1 UNK         0.0786 
    104 H104       26.7961   -1.4289   -3.2780 H         1 UNK         0.2977 
    105 H105       28.6296   -3.1196   -7.9035 H         1 UNK         0.3127 
    106 H106       28.0527   -1.0138   -9.7883 H         1 UNK         0.0770 
    107 H107       30.7095   -2.2176   -8.8540 H         1 UNK         0.0814 
    108 H108       30.4869   -1.1908  -10.2642 H         1 UNK         0.0814 
    109 H109       29.7486   -2.7792  -10.2218 H         1 UNK         0.0814 
    110 H110       27.2801   -0.1376   -7.1957 H         1 UNK         0.2983 
    111 H111       29.2461    1.5751   -5.9841 H         1 UNK         0.0947 
    112 H112       26.1898    1.5266   -5.7532 H         1 UNK         0.0806 
    113 H113       27.2524    2.4921   -4.7355 H         1 UNK         0.0806 
    114 H114       27.3440    0.7419   -4.6751 H         1 UNK         0.0806 
    115 H115       27.0415    2.0280   -8.6641 H         1 UNK         0.3000 
    116 H116       27.1803    4.8671   -8.9131 H         1 UNK         0.0850 
    117 H117       26.4737    4.4117  -11.2703 H         1 UNK         0.0810 
    118 H118       25.5158    3.4790  -10.1335 H         1 UNK         0.0810 
    119 H119       26.8028    2.6984  -11.0543 H         1 UNK         0.0810 
    120 H120       29.5316    2.3619   -9.6167 H         1 UNK         0.3040 
    121 H121       31.3927    4.3088  -10.9137 H         1 UNK         0.0766 
    122 H122       30.8866    2.2167  -12.2222 H         1 UNK         0.0812 
    123 H123       31.4364    1.2390  -10.8610 H         1 UNK         0.0812 
    124 H124       32.5657    2.2794  -11.7170 H         1 UNK         0.0812 
    125 H125       30.5758    3.4941   -7.8903 H         1 UNK         0.3205 
    126 H126       31.4584    3.1341   -5.9009 H         1 UNK         0.0754 
    127 H127       33.4516    4.4707   -5.2995 H         1 UNK         0.0769 
    128 H128       32.4148    5.3969   -6.3705 H         1 UNK         0.0769 
    129 H129       33.8864    4.6518   -6.9938 H         1 UNK         0.0769 
    130 H130       31.7120    0.9106   -7.6007 H         1 UNK         0.2981 
    131 H131       32.5991   -1.0638   -7.8360 H         1 UNK         0.0541 
    132 H132       34.1668    1.5125   -8.9798 H         1 UNK         0.3459 
    133 H133       35.5526    0.6873   -9.6476 H         1 UNK         0.3459 
    134 H134       34.2215   -2.0515   -6.1441 H         1 UNK         0.0612 
    135 H135       34.2548   -0.5272   -5.3160 H         1 UNK         0.0612 
    136 H136       33.4867   -3.4169   -4.1352 H         1 UNK         0.0624 
    137 H137       32.6854   -3.9121   -5.6089 H         1 UNK         0.0624 
@<TRIPOS>BOND
     1    1    2 1    
     2    1   72 1    
     3    1   73 1    
     4    1   74 1    
     5    2    3 2    
     6    2    4 am   BACKBONE|DICT|INTERRES
     7    4    5 1    
     8    4   75 1    
     9    5    6 1    
    10    5   35 1    
    11    5   76 1    
    12    6    7 1    
    13    6   77 1    
    14    6   78 1    
    15    7    8 1    
    16    8    9 1    
    17    8   79 1    
    18    8   80 1    
    19    9   10 ar   
    20    9   14 ar   
    21   10   11 ar   
    22   10   81 1    
    23   11   12 ar   
    24   11   71 1    
    25   12   13 ar   
    26   12   82 1    
    27   13   14 ar   
    28   13   15 1    
    29   14   83 1    
    30   15   16 1    
    31   15   84 1    
    32   15   85 1    
    33   16   17 1    
    34   17   18 1    
    35   17   86 1    
    36   17   87 1    
    37   18   19 1    
    38   18   37 1    
    39   18   88 1    
    40   19   20 am   BACKBONE|DICT|INTERRES
    41   19   89 1    
    42   20   21 2    
    43   20   22 1    
    44   22   23 1    
    45   22   24 1    
    46   22   90 1    
    47   23   91 1    
    48   23   92 1    
    49   23   93 1    
    50   24   25 am   BACKBONE|DICT|INTERRES
    51   24   94 1    
    52   25   26 2    
    53   25   27 1    
    54   27   28 1    
    55   27   29 1    
    56   27   95 1    
    57   28   96 1    
    58   28   97 1    
    59   28   98 1    
    60   29   30 am   BACKBONE|DICT|INTERRES
    61   29   99 1    
    62   30   31 2    
    63   30   32 1    
    64   32   33 1    
    65   32   34 1    
    66   32  100 1    
    67   33  101 1    
    68   33  102 1    
    69   33  103 1    
    70   34   35 am   BACKBONE|DICT|INTERRES
    71   34  104 1    
    72   35   36 2    
    73   37   38 2    
    74   37   39 am   BACKBONE|DICT|INTERRES
    75   39   40 1    
    76   39  105 1    
    77   40   41 1    
    78   40   42 1    
    79   40  106 1    
    80   41  107 1    
    81   41  108 1    
    82   41  109 1    
    83   42   43 2    
    84   42   44 am   BACKBONE|DICT|INTERRES
    85   44   45 1    
    86   44  110 1    
    87   45   46 1    
    88   45   47 1    
    89   45  111 1    
    90   46  112 1    
    91   46  113 1    
    92   46  114 1    
    93   47   48 2    
    94   47   49 am   BACKBONE|DICT|INTERRES
    95   49   50 1    
    96   49  115 1    
    97   50   51 1    
    98   50   52 1    
    99   50  116 1    
   100   51  117 1    
   101   51  118 1    
   102   51  119 1    
   103   52   53 2    
   104   52   54 am   BACKBONE|DICT|INTERRES
   105   54   55 1    
   106   54  120 1    
   107   55   56 1    
   108   55   57 1    
   109   55  121 1    
   110   56  122 1    
   111   56  123 1    
   112   56  124 1    
   113   57   58 2    
   114   57   59 am   BACKBONE|DICT|INTERRES
   115   59   60 1    
   116   59  125 1    
   117   60   61 1    
   118   60   62 1    
   119   60  126 1    
   120   61  127 1    
   121   61  128 1    
   122   61  129 1    
   123   62   63 2    
   124   62   64 am   BACKBONE|DICT|INTERRES
   125   64   65 1    
   126   64  130 1    
   127   65   66 1    
   128   65   69 1    
   129   65  131 1    
   130   66   67 am   BACKBONE|DICT|INTERRES
   131   66   68 2    
   132   67  132 1    
   133   67  133 1    
   134   69   70 1    
   135   69  134 1    
   136   69  135 1    
   137   70   71 1    
   138   71  136 1    
   139   71  137 1    
@<TRIPOS>SUBSTRUCTURE
     1 UNK         1 GROUP             0       ****    0 ROOT    
