@<TRIPOS>MOLECULE
3R137
137   139    1
SMALL
USER_CHARGES


@<TRIPOS>ATOM
      1 CA         29.6787   -5.4580   -3.4133 C.3       0 UNK        -0.2020 
      2 C          28.8910   -4.8362   -2.2730 C.2       0 UNK         0.4855 
      3 O          27.9343   -5.4394   -1.7878 O.2       0 UNK        -0.5197 
      4 N          29.2785   -3.6301   -1.8393 N.am      1 UNK        -0.4892 
      5 CA         28.7118   -2.8916   -0.7031 C.3       1 UNK         0.0835 
      6 C6         29.7556   -1.9700   -0.0103 C.3       12 UNK        -0.0855 
      7 S7         30.5393   -0.5539   -0.8840 S.3       12 UNK        -0.2931 
      8 C8         29.9462   -0.5132   -2.6124 C.3       12 UNK         0.0378 
      9 C9         30.6189   -1.4945   -3.5730 C.ar      12 UNK        -0.0802 
     10 C10        31.8597   -2.0914   -3.3108 C.ar      12 UNK        -0.0944 
     11 C11        32.4230   -2.9857   -4.2256 C.ar      12 UNK        -0.0787 
     12 C12        31.7431   -3.2860   -5.4082 C.ar      12 UNK        -0.0862 
     13 C13        30.5193   -2.6806   -5.6968 C.ar      12 UNK        -0.0733 
     14 C14        29.9701   -1.7847   -4.7758 C.ar      12 UNK        -0.0832 
     15 C15        29.8513   -2.9276   -7.0431 C.3       12 UNK         0.0240 
     16 S16        28.4516   -4.0980   -6.9965 S.3       12 UNK        -0.2522 
     17 C17        27.0947   -3.1738   -6.1952 C.3       12 UNK        -0.0967 
     18 CA         26.3539   -2.1763   -7.1297 C.3       5 UNK         0.0660 
     19 N          24.9835   -1.9320   -6.6815 N.am      5 UNK        -0.4015 
     20 C          24.0058   -1.4330   -7.4513 C.2       4 UNK         0.4946 
     21 O          24.1125   -1.2443   -8.6632 O.2       4 UNK        -0.5353 
     22 CA         22.6906   -1.0567   -6.7448 C.3       4 UNK         0.0277 
     23 CB         21.7128   -2.2427   -6.7591 C.3       4 UNK        -0.1981 
     24 N          22.8849   -0.6009   -5.3642 N.am      4 UNK        -0.4209 
     25 C          23.5346    0.5204   -5.0178 C.2       3 UNK         0.4942 
     26 O          24.0079    1.3151   -5.8279 O.2       3 UNK        -0.5208 
     27 CA         23.7399    0.7689   -3.5142 C.3       3 UNK         0.0250 
     28 CB         22.5247    1.4962   -2.9175 C.3       3 UNK        -0.1990 
     29 N          24.0102   -0.4526   -2.7482 N.am      3 UNK        -0.4232 
     30 C          25.0507   -1.2733   -2.9497 C.2       2 UNK         0.4993 
     31 O          25.8902   -1.1179   -3.8411 O.2       2 UNK        -0.5286 
     32 CA         25.1071   -2.5238   -2.0607 C.3       2 UNK         0.0209 
     33 CB         24.4052   -3.6977   -2.7631 C.3       2 UNK        -0.1931 
     34 N          26.4755   -2.9240   -1.7324 N.am      2 UNK        -0.4546 
     35 C          27.3335   -2.2355   -0.9692 C.2       1 UNK         0.5154 
     36 O          27.0564   -1.1483   -0.4592 O.2       1 UNK        -0.5181 
     37 C          27.0911   -0.8301   -7.2559 C.2       5 UNK         0.5014 
     38 O          27.6701   -0.5447   -8.3053 O.2       5 UNK        -0.5248 
     39 N          27.0450   -0.0177   -6.1886 N.am      6 UNK        -0.4434 
     40 CA         27.7507    1.2619   -6.0791 C.3       6 UNK         0.0363 
     41 CB         27.5246    1.8608   -4.6830 C.3       6 UNK        -0.1936 
     42 C          27.3771    2.2793   -7.1693 C.2       6 UNK         0.5081 
     43 O          28.2561    2.9862   -7.6624 O.2       6 UNK        -0.5248 
     44 N          26.0924    2.3047   -7.5487 N.am      7 UNK        -0.4718 
     45 CA         25.5561    3.1087   -8.6481 C.3       7 UNK         0.0273 
     46 CB         24.0206    3.0446   -8.6154 C.3       7 UNK        -0.1935 
     47 C          26.0777    2.6934  -10.0360 C.2       7 UNK         0.5018 
     48 O          26.0898    3.5331  -10.9373 O.2       7 UNK        -0.5186 
     49 N          26.4907    1.4269  -10.1927 N.am      8 UNK        -0.4240 
     50 CA         27.1132    0.9154  -11.4117 C.3       8 UNK         0.0235 
     51 CB         26.8386   -0.5914  -11.5652 C.3       8 UNK        -0.2000 
     52 C          28.6158    1.2282  -11.4152 C.2       8 UNK         0.4941 
     53 O          29.0800    1.9077  -12.3320 O.2       8 UNK        -0.5273 
     54 N          29.3407    0.7528  -10.3921 N.am      9 UNK        -0.4262 
     55 CA         30.7813    0.9528  -10.2228 C.3       9 UNK         0.0264 
     56 CB         31.5799    0.2381  -11.3376 C.3       9 UNK        -0.1955 
     57 C          31.2089    0.4507   -8.8387 C.2       9 UNK         0.5031 
     58 O          31.4928   -0.7387   -8.6911 O.2       9 UNK        -0.5390 
     59 N          31.2513    1.3540   -7.8512 N.am      10 UNK        -0.4204 
     60 CA         31.7543    1.0792   -6.5007 C.3       10 UNK         0.0237 
     61 CB         31.4325    2.2787   -5.5902 C.3       10 UNK        -0.1985 
     62 C          33.2715    0.8171   -6.4783 C.2       10 UNK         0.4970 
     63 O          33.9976    1.3674   -7.3102 O.2       10 UNK        -0.4914 
     64 N          33.7283    0.0513   -5.4780 N.am      11 UNK        -0.4285 
     65 CA         35.1574   -0.1238   -5.1582 C.3       11 UNK         0.1007 
     66 C          35.8510    1.1518   -4.5912 C.2       11 UNK         0.5703 
     67 N          35.1227    2.1586   -4.1216 N.am      11 UNK        -0.7361 
     68 O          37.0774    1.2297   -4.5841 O.2       11 UNK        -0.4986 
     69 C69        35.4027   -1.3322   -4.2153 C.3       12 UNK        -0.0947 
     70 S70        35.0720   -2.9368   -5.0139 S.3       12 UNK        -0.2240 
     71 C71        33.7699   -3.6326   -3.9502 C.3       12 UNK         0.0194 
     72 H72        29.2429   -5.1763   -4.3700 H         1 UNK         0.0906 
     73 H73        30.7194   -5.1381   -3.3969 H         1 UNK         0.0906 
     74 H74        29.6640   -6.5450   -3.3387 H         1 UNK         0.0906 
     75 H75        30.0353   -3.1573   -2.3176 H         1 UNK         0.3140 
     76 H76        28.4760   -3.6487    0.0489 H         1 UNK         0.1085 
     77 H77        29.3225   -1.5687    0.9080 H         1 UNK         0.0836 
     78 H78        30.5780   -2.5983    0.3359 H         1 UNK         0.0836 
     79 H79        28.8646   -0.6413   -2.6321 H         1 UNK         0.0731 
     80 H80        30.1302    0.4917   -2.9943 H         1 UNK         0.0731 
     81 H81        32.3963   -1.8645   -2.4001 H         1 UNK         0.1312 
     82 H82        32.1881   -3.9680   -6.1201 H         1 UNK         0.1406 
     83 H83        29.0420   -1.2852   -5.0012 H         1 UNK         0.1631 
     84 H84        29.5463   -1.9795   -7.4730 H         1 UNK         0.0717 
     85 H85        30.5861   -3.3246   -7.7451 H         1 UNK         0.0717 
     86 H86        26.3881   -3.9413   -5.8756 H         1 UNK         0.0934 
     87 H87        27.4291   -2.7178   -5.2655 H         1 UNK         0.0934 
     88 H88        26.2999   -2.6197   -8.1268 H         1 UNK         0.0739 
     89 H89        24.8230   -1.9993   -5.6867 H         1 UNK         0.3093 
     90 H90        22.2420   -0.2347   -7.3071 H         1 UNK         0.0818 
     91 H91        20.7457   -1.9652   -6.3395 H         1 UNK         0.0819 
     92 H92        21.5338   -2.5870   -7.7788 H         1 UNK         0.0819 
     93 H93        22.0955   -3.0918   -6.1914 H         1 UNK         0.0819 
     94 H94        22.5153   -1.1875   -4.6304 H         1 UNK         0.3041 
     95 H95        24.6088    1.4193   -3.4040 H         1 UNK         0.0784 
     96 H96        22.3182    2.4196   -3.4610 H         1 UNK         0.0793 
     97 H97        21.6228    0.8842   -2.9606 H         1 UNK         0.0793 
     98 H98        22.6970    1.7687   -1.8761 H         1 UNK         0.0793 
     99 H99        23.3594   -0.6666   -2.0057 H         1 UNK         0.3024 
    100 H100       24.5905   -2.3113   -1.1220 H         1 UNK         0.1171 
    101 H101       24.3886   -4.5849   -2.1296 H         1 UNK         0.0786 
    102 H102       23.3689   -3.4542   -3.0014 H         1 UNK         0.0786 
    103 H103       24.9021   -3.9649   -3.6967 H         1 UNK         0.0786 
    104 H104       26.7870   -3.8285   -2.0695 H         1 UNK         0.2977 
    105 H105       26.5449   -0.3326   -5.3579 H         1 UNK         0.3127 
    106 H106       28.8100    1.0334   -6.1930 H         1 UNK         0.0770 
    107 H107       26.4879    2.1665   -4.5451 H         1 UNK         0.0814 
    108 H108       28.1437    2.7460   -4.5332 H         1 UNK         0.0814 
    109 H109       27.7713    1.1519   -3.8938 H         1 UNK         0.0814 
    110 H110       25.4218    1.7434   -7.0277 H         1 UNK         0.2983 
    111 H111       25.8616    4.1443   -8.4836 H         1 UNK         0.0947 
    112 H112       23.5847    3.6425   -9.4170 H         1 UNK         0.0806 
    113 H113       23.6281    3.4301   -7.6742 H         1 UNK         0.0806 
    114 H114       23.6592    2.0220   -8.7341 H         1 UNK         0.0806 
    115 H115       26.5063    0.8140   -9.3855 H         1 UNK         0.3000 
    116 H116       26.6655    1.4143  -12.2744 H         1 UNK         0.0850 
    117 H117       27.2473   -0.9637  -12.5053 H         1 UNK         0.0810 
    118 H118       25.7682   -0.7980  -11.5722 H         1 UNK         0.0810 
    119 H119       27.2835   -1.1818  -10.7649 H         1 UNK         0.0810 
    120 H120       28.8706    0.2272   -9.6568 H         1 UNK         0.3040 
    121 H121       30.9924    2.0227  -10.2800 H         1 UNK         0.0766 
    122 H122       31.4149    0.6932  -12.3136 H         1 UNK         0.0812 
    123 H123       31.3117   -0.8165  -11.4108 H         1 UNK         0.0812 
    124 H124       32.6519    0.2888  -11.1423 H         1 UNK         0.0812 
    125 H125       30.9917    2.3094   -8.0527 H         1 UNK         0.3205 
    126 H126       31.2383    0.1956   -6.1264 H         1 UNK         0.0754 
    127 H127       31.6514    2.0479   -4.5470 H         1 UNK         0.0769 
    128 H128       30.3845    2.5670   -5.6417 H         1 UNK         0.0769 
    129 H129       32.0219    3.1564   -5.8603 H         1 UNK         0.0769 
    130 H130       33.0749   -0.3922   -4.8489 H         1 UNK         0.2981 
    131 H131       35.6704   -0.3361   -6.0984 H         1 UNK         0.0541 
    132 H132       34.1180    2.1075   -4.1144 H         1 UNK         0.3459 
    133 H133       35.5895    2.9766   -3.7629 H         1 UNK         0.3459 
    134 H134       34.8102   -1.2319   -3.3045 H         1 UNK         0.0612 
    135 H135       36.4447   -1.3648   -3.8910 H         1 UNK         0.0612 
    136 H136       34.0534   -3.5286   -2.9018 H         1 UNK         0.0624 
    137 H137       33.6971   -4.7042   -4.1416 H         1 UNK         0.0624 
@<TRIPOS>BOND
     1    1    2 1    
     2    1   72 1    
     3    1   73 1    
     4    1   74 1    
     5    2    3 2    
     6    2    4 am   BACKBONE|DICT|INTERRES
     7    4    5 1    
     8    4   75 1    
     9    5    6 1    
    10    5   35 1    
    11    5   76 1    
    12    6    7 1    
    13    6   77 1    
    14    6   78 1    
    15    7    8 1    
    16    8    9 1    
    17    8   79 1    
    18    8   80 1    
    19    9   10 ar   
    20    9   14 ar   
    21   10   11 ar   
    22   10   81 1    
    23   11   12 ar   
    24   11   71 1    
    25   12   13 ar   
    26   12   82 1    
    27   13   14 ar   
    28   13   15 1    
    29   14   83 1    
    30   15   16 1    
    31   15   84 1    
    32   15   85 1    
    33   16   17 1    
    34   17   18 1    
    35   17   86 1    
    36   17   87 1    
    37   18   19 1    
    38   18   37 1    
    39   18   88 1    
    40   19   20 am   BACKBONE|DICT|INTERRES
    41   19   89 1    
    42   20   21 2    
    43   20   22 1    
    44   22   23 1    
    45   22   24 1    
    46   22   90 1    
    47   23   91 1    
    48   23   92 1    
    49   23   93 1    
    50   24   25 am   BACKBONE|DICT|INTERRES
    51   24   94 1    
    52   25   26 2    
    53   25   27 1    
    54   27   28 1    
    55   27   29 1    
    56   27   95 1    
    57   28   96 1    
    58   28   97 1    
    59   28   98 1    
    60   29   30 am   BACKBONE|DICT|INTERRES
    61   29   99 1    
    62   30   31 2    
    63   30   32 1    
    64   32   33 1    
    65   32   34 1    
    66   32  100 1    
    67   33  101 1    
    68   33  102 1    
    69   33  103 1    
    70   34   35 am   BACKBONE|DICT|INTERRES
    71   34  104 1    
    72   35   36 2    
    73   37   38 2    
    74   37   39 am   BACKBONE|DICT|INTERRES
    75   39   40 1    
    76   39  105 1    
    77   40   41 1    
    78   40   42 1    
    79   40  106 1    
    80   41  107 1    
    81   41  108 1    
    82   41  109 1    
    83   42   43 2    
    84   42   44 am   BACKBONE|DICT|INTERRES
    85   44   45 1    
    86   44  110 1    
    87   45   46 1    
    88   45   47 1    
    89   45  111 1    
    90   46  112 1    
    91   46  113 1    
    92   46  114 1    
    93   47   48 2    
    94   47   49 am   BACKBONE|DICT|INTERRES
    95   49   50 1    
    96   49  115 1    
    97   50   51 1    
    98   50   52 1    
    99   50  116 1    
   100   51  117 1    
   101   51  118 1    
   102   51  119 1    
   103   52   53 2    
   104   52   54 am   BACKBONE|DICT|INTERRES
   105   54   55 1    
   106   54  120 1    
   107   55   56 1    
   108   55   57 1    
   109   55  121 1    
   110   56  122 1    
   111   56  123 1    
   112   56  124 1    
   113   57   58 2    
   114   57   59 am   BACKBONE|DICT|INTERRES
   115   59   60 1    
   116   59  125 1    
   117   60   61 1    
   118   60   62 1    
   119   60  126 1    
   120   61  127 1    
   121   61  128 1    
   122   61  129 1    
   123   62   63 2    
   124   62   64 am   BACKBONE|DICT|INTERRES
   125   64   65 1    
   126   64  130 1    
   127   65   66 1    
   128   65   69 1    
   129   65  131 1    
   130   66   67 am   BACKBONE|DICT|INTERRES
   131   66   68 2    
   132   67  132 1    
   133   67  133 1    
   134   69   70 1    
   135   69  134 1    
   136   69  135 1    
   137   70   71 1    
   138   71  136 1    
   139   71  137 1    
@<TRIPOS>SUBSTRUCTURE
     1 UNK         1 GROUP             0       ****    0 ROOT    
