@<TRIPOS>MOLECULE
3R137
137   139    1
SMALL
USER_CHARGES


@<TRIPOS>ATOM
      1 CA         23.9609   -5.0253   -3.6664 C.3       0 UNK        -0.2020 
      2 C          24.5003   -4.0906   -2.5939 C.2       0 UNK         0.4855 
      3 O          23.8544   -3.0928   -2.2748 O.2       0 UNK        -0.5197 
      4 N          25.6718   -4.4106   -2.0298 N.am      1 UNK        -0.4892 
      5 CA         26.3475   -3.6307   -0.9870 C.3       1 UNK         0.0835 
      6 C6         27.4240   -4.4593   -0.2347 C.3       12 UNK        -0.0855 
      7 S7         28.5570   -5.4180   -1.3006 S.3       12 UNK        -0.2931 
      8 C8         30.0253   -4.3320   -1.4285 C.3       12 UNK         0.0378 
      9 C9         30.3687   -3.8716   -2.8477 C.ar      12 UNK        -0.0802 
     10 C10        31.2276   -2.7774   -3.0106 C.ar      12 UNK        -0.0944 
     11 C11        31.5984   -2.3266   -4.2823 C.ar      12 UNK        -0.0787 
     12 C12        31.0720   -2.9847   -5.4023 C.ar      12 UNK        -0.0862 
     13 C13        30.1991   -4.0655   -5.2681 C.ar      12 UNK        -0.0733 
     14 C14        29.8783   -4.5230   -3.9880 C.ar      12 UNK        -0.0832 
     15 C15        29.6389   -4.7295   -6.5259 C.3       12 UNK         0.0240 
     16 S16        27.8842   -5.2441   -6.4371 S.3       12 UNK        -0.2522 
     17 C17        27.0167   -3.8057   -5.7234 C.3       12 UNK        -0.0967 
     18 CA         26.6936   -2.6746   -6.7337 C.3       5 UNK         0.0660 
     19 N          25.4674   -1.9543   -6.3684 N.am      5 UNK        -0.4015 
     20 C          24.8702   -1.0230   -7.1269 C.2       4 UNK         0.4946 
     21 O          25.2648   -0.6860   -8.2432 O.2       4 UNK        -0.5353 
     22 CA         23.6382   -0.3205   -6.5289 C.3       4 UNK         0.0277 
     23 CB         22.3732   -1.1602   -6.7691 C.3       4 UNK        -0.1981 
     24 N          23.7450    0.0068   -5.1012 N.am      4 UNK        -0.4209 
     25 C          24.7178    0.7393   -4.5398 C.2       3 UNK         0.4942 
     26 O          25.7029    1.1476   -5.1529 O.2       3 UNK        -0.5208 
     27 CA         24.6012    1.0668   -3.0465 C.3       3 UNK         0.0250 
     28 CB         23.2791    0.6259   -2.3834 C.3       3 UNK        -0.1990 
     29 N          25.7297    0.4363   -2.3770 N.am      3 UNK        -0.4232 
     30 C          26.4110    0.9135   -1.3331 C.2       2 UNK         0.4993 
     31 O          26.1475    1.9792   -0.7729 O.2       2 UNK        -0.5286 
     32 CA         27.5660    0.0253   -0.8201 C.3       2 UNK         0.0209 
     33 CB         28.2248    0.5820    0.4560 C.3       2 UNK        -0.1931 
     34 N          27.1362   -1.3550   -0.5690 N.am      2 UNK        -0.4546 
     35 C          26.8923   -2.2826   -1.5058 C.2       1 UNK         0.5154 
     36 O          27.0470   -2.0784   -2.7153 O.2       1 UNK        -0.5181 
     37 C          27.8762   -1.6997   -6.8793 C.2       5 UNK         0.5014 
     38 O          28.5186   -1.6610   -7.9295 O.2       5 UNK        -0.5248 
     39 N          28.1071   -0.9053   -5.8258 N.am      6 UNK        -0.4434 
     40 CA         29.1621    0.1018   -5.7520 C.3       6 UNK         0.0363 
     41 CB         29.2364    0.6432   -4.3192 C.3       6 UNK        -0.1936 
     42 C          29.0006    1.2333   -6.7765 C.2       6 UNK         0.5081 
     43 O          30.0017    1.6891   -7.3288 O.2       6 UNK        -0.5248 
     44 N          27.7542    1.6453   -7.0398 N.am      7 UNK        -0.4718 
     45 CA         27.4029    2.6164   -8.0756 C.3       7 UNK         0.0273 
     46 CB         25.9246    3.0127   -7.9364 C.3       7 UNK        -0.1935 
     47 C          27.7017    2.0987   -9.4917 C.2       7 UNK         0.5018 
     48 O          28.2973    2.8306  -10.2825 O.2       7 UNK        -0.5186 
     49 N          27.3109    0.8477   -9.7794 N.am      8 UNK        -0.4240 
     50 CA         27.5548    0.1817  -11.0623 C.3       8 UNK         0.0235 
     51 CB         26.7395   -1.1193  -11.1361 C.3       8 UNK        -0.2000 
     52 C          29.0445   -0.0973  -11.3195 C.2       8 UNK         0.4941 
     53 O          29.5184    0.1273  -12.4338 O.2       8 UNK        -0.5273 
     54 N          29.7553   -0.5706  -10.2877 N.am      9 UNK        -0.4262 
     55 CA         31.1875   -0.8775  -10.3359 C.3       9 UNK         0.0264 
     56 CB         31.5121   -1.8553   -9.2003 C.3       9 UNK        -0.1955 
     57 C          32.1007    0.3618  -10.2594 C.2       9 UNK         0.5031 
     58 O          33.2905    0.2343  -10.5527 O.2       9 UNK        -0.5390 
     59 N          31.5430    1.5186   -9.8714 N.am      10 UNK        -0.4204 
     60 CA         32.2063    2.8110   -9.6634 C.3       10 UNK         0.0237 
     61 CB         32.7989    3.3589  -10.9800 C.3       10 UNK        -0.1985 
     62 C          33.2190    2.7701   -8.5017 C.2       10 UNK         0.4970 
     63 O          34.3666    3.1923   -8.6594 O.2       10 UNK        -0.4914 
     64 N          32.7560    2.2733   -7.3511 N.am      11 UNK        -0.4285 
     65 CA         33.4925    2.1885   -6.0790 C.3       11 UNK         0.1007 
     66 C          32.6873    2.7351   -4.8659 C.2       11 UNK         0.5703 
     67 N          31.5603    3.4088   -5.0677 N.am      11 UNK        -0.7361 
     68 O          33.1045    2.5797   -3.7209 O.2       11 UNK        -0.4986 
     69 C69        34.1218    0.7852   -5.8373 C.3       12 UNK        -0.0947 
     70 S70        32.9802   -0.6134   -6.0908 S.3       12 UNK        -0.2240 
     71 C71        32.5620   -1.1346   -4.3888 C.3       12 UNK         0.0194 
     72 H72        23.7180   -4.4661   -4.5694 H         1 UNK         0.0906 
     73 H73        24.6782   -5.8029   -3.9290 H         1 UNK         0.0906 
     74 H74        23.0505   -5.5095   -3.3142 H         1 UNK         0.0906 
     75 H75        26.1846   -5.2210   -2.3483 H         1 UNK         0.3140 
     76 H76        25.5789   -3.3730   -0.2540 H         1 UNK         0.1085 
     77 H77        27.9941   -3.8439    0.4637 H         1 UNK         0.0836 
     78 H78        26.9127   -5.1874    0.3971 H         1 UNK         0.0836 
     79 H79        30.8837   -4.8718   -1.0268 H         1 UNK         0.0731 
     80 H80        29.8910   -3.4562   -0.7923 H         1 UNK         0.0731 
     81 H81        31.6218   -2.2764   -2.1367 H         1 UNK         0.1312 
     82 H82        31.3311   -2.6646   -6.3978 H         1 UNK         0.1406 
     83 H83        29.2287   -5.3807   -3.8940 H         1 UNK         0.1631 
     84 H84        30.2441   -5.6087   -6.7495 H         1 UNK         0.0717 
     85 H85        29.7465   -4.0646   -7.3839 H         1 UNK         0.0717 
     86 H86        26.0853   -4.2124   -5.3334 H         1 UNK         0.0934 
     87 H87        27.5452   -3.4378   -4.8443 H         1 UNK         0.0934 
     88 H88        26.5116   -3.1224   -7.7133 H         1 UNK         0.0739 
     89 H89        25.0811   -2.1424   -5.4558 H         1 UNK         0.3093 
     90 H90        23.5206    0.6247   -7.0625 H         1 UNK         0.0818 
     91 H91        21.4748   -0.6199   -6.4699 H         1 UNK         0.0819 
     92 H92        22.2623   -1.4051   -7.8266 H         1 UNK         0.0819 
     93 H93        22.3992   -2.1009   -6.2177 H         1 UNK         0.0819 
     94 H94        22.9842   -0.2981   -4.5109 H         1 UNK         0.3041 
     95 H95        24.6881    2.1520   -2.9605 H         1 UNK         0.0784 
     96 H96        22.4171    1.0804   -2.8736 H         1 UNK         0.0793 
     97 H97        23.1501   -0.4569   -2.4033 H         1 UNK         0.0793 
     98 H98        23.2479    0.9366   -1.3388 H         1 UNK         0.0793 
     99 H99        26.0434   -0.4490   -2.7662 H         1 UNK         0.3024 
    100 H100       28.3274    0.0117   -1.6007 H         1 UNK         0.1171 
    101 H101       29.0677   -0.0346    0.7690 H         1 UNK         0.0786 
    102 H102       28.6090    1.5895    0.2903 H         1 UNK         0.0786 
    103 H103       27.5189    0.6340    1.2858 H         1 UNK         0.0786 
    104 H104       26.9498   -1.5851    0.3967 H         1 UNK         0.2977 
    105 H105       27.5223   -1.0044   -5.0083 H         1 UNK         0.3127 
    106 H106       30.1026   -0.3969   -5.9800 H         1 UNK         0.0770 
    107 H107       28.3092    1.1354   -4.0237 H         1 UNK         0.0814 
    108 H108       30.0413    1.3677   -4.2133 H         1 UNK         0.0814 
    109 H109       29.4388   -0.1630   -3.6146 H         1 UNK         0.0814 
    110 H110       26.9910    1.2748   -6.4763 H         1 UNK         0.2983 
    111 H111       28.0114    3.5089   -7.9140 H         1 UNK         0.0947 
    112 H112       25.6475    3.7577   -8.6834 H         1 UNK         0.0806 
    113 H113       25.7215    3.4439   -6.9559 H         1 UNK         0.0806 
    114 H114       25.2629    2.1561   -8.0668 H         1 UNK         0.0806 
    115 H115       26.7984    0.3167   -9.0802 H         1 UNK         0.3000 
    116 H116       27.2029    0.8464  -11.8542 H         1 UNK         0.0850 
    117 H117       26.9023   -1.6312  -12.0855 H         1 UNK         0.0810 
    118 H118       25.6707   -0.9210  -11.0533 H         1 UNK         0.0810 
    119 H119       27.0116   -1.8119  -10.3384 H         1 UNK         0.0810 
    120 H120       29.2714   -0.7900   -9.4178 H         1 UNK         0.3040 
    121 H121       31.4031   -1.3765  -11.2831 H         1 UNK         0.0766 
    122 H122       31.2373   -1.4234   -8.2399 H         1 UNK         0.0812 
    123 H123       32.5762   -2.0933   -9.1662 H         1 UNK         0.0812 
    124 H124       30.9685   -2.7931   -9.3143 H         1 UNK         0.0812 
    125 H125       30.5691    1.4898   -9.5969 H         1 UNK         0.3205 
    126 H126       31.4196    3.5005   -9.3528 H         1 UNK         0.0754 
    127 H127       33.1741    4.3739  -10.8445 H         1 UNK         0.0769 
    128 H128       32.0459    3.3942  -11.7675 H         1 UNK         0.0769 
    129 H129       33.6309    2.7520  -11.3381 H         1 UNK         0.0769 
    130 H130       31.7891    1.9524   -7.3164 H         1 UNK         0.2981 
    131 H131       34.3288    2.8871   -6.1366 H         1 UNK         0.0541 
    132 H132       31.2008    3.5469   -5.9986 H         1 UNK         0.3459 
    133 H133       31.0640    3.7812   -4.2745 H         1 UNK         0.3459 
    134 H134       34.5808    0.7145   -4.8498 H         1 UNK         0.0612 
    135 H135       34.9416    0.6475   -6.5436 H         1 UNK         0.0612 
    136 H136       33.4875   -1.3858   -3.8691 H         1 UNK         0.0624 
    137 H137       32.1284   -0.2823   -3.8643 H         1 UNK         0.0624 
@<TRIPOS>BOND
     1    1    2 1    
     2    1   72 1    
     3    1   73 1    
     4    1   74 1    
     5    2    3 2    
     6    2    4 am   BACKBONE|DICT|INTERRES
     7    4    5 1    
     8    4   75 1    
     9    5    6 1    
    10    5   35 1    
    11    5   76 1    
    12    6    7 1    
    13    6   77 1    
    14    6   78 1    
    15    7    8 1    
    16    8    9 1    
    17    8   79 1    
    18    8   80 1    
    19    9   10 ar   
    20    9   14 ar   
    21   10   11 ar   
    22   10   81 1    
    23   11   12 ar   
    24   11   71 1    
    25   12   13 ar   
    26   12   82 1    
    27   13   14 ar   
    28   13   15 1    
    29   14   83 1    
    30   15   16 1    
    31   15   84 1    
    32   15   85 1    
    33   16   17 1    
    34   17   18 1    
    35   17   86 1    
    36   17   87 1    
    37   18   19 1    
    38   18   37 1    
    39   18   88 1    
    40   19   20 am   BACKBONE|DICT|INTERRES
    41   19   89 1    
    42   20   21 2    
    43   20   22 1    
    44   22   23 1    
    45   22   24 1    
    46   22   90 1    
    47   23   91 1    
    48   23   92 1    
    49   23   93 1    
    50   24   25 am   BACKBONE|DICT|INTERRES
    51   24   94 1    
    52   25   26 2    
    53   25   27 1    
    54   27   28 1    
    55   27   29 1    
    56   27   95 1    
    57   28   96 1    
    58   28   97 1    
    59   28   98 1    
    60   29   30 am   BACKBONE|DICT|INTERRES
    61   29   99 1    
    62   30   31 2    
    63   30   32 1    
    64   32   33 1    
    65   32   34 1    
    66   32  100 1    
    67   33  101 1    
    68   33  102 1    
    69   33  103 1    
    70   34   35 am   BACKBONE|DICT|INTERRES
    71   34  104 1    
    72   35   36 2    
    73   37   38 2    
    74   37   39 am   BACKBONE|DICT|INTERRES
    75   39   40 1    
    76   39  105 1    
    77   40   41 1    
    78   40   42 1    
    79   40  106 1    
    80   41  107 1    
    81   41  108 1    
    82   41  109 1    
    83   42   43 2    
    84   42   44 am   BACKBONE|DICT|INTERRES
    85   44   45 1    
    86   44  110 1    
    87   45   46 1    
    88   45   47 1    
    89   45  111 1    
    90   46  112 1    
    91   46  113 1    
    92   46  114 1    
    93   47   48 2    
    94   47   49 am   BACKBONE|DICT|INTERRES
    95   49   50 1    
    96   49  115 1    
    97   50   51 1    
    98   50   52 1    
    99   50  116 1    
   100   51  117 1    
   101   51  118 1    
   102   51  119 1    
   103   52   53 2    
   104   52   54 am   BACKBONE|DICT|INTERRES
   105   54   55 1    
   106   54  120 1    
   107   55   56 1    
   108   55   57 1    
   109   55  121 1    
   110   56  122 1    
   111   56  123 1    
   112   56  124 1    
   113   57   58 2    
   114   57   59 am   BACKBONE|DICT|INTERRES
   115   59   60 1    
   116   59  125 1    
   117   60   61 1    
   118   60   62 1    
   119   60  126 1    
   120   61  127 1    
   121   61  128 1    
   122   61  129 1    
   123   62   63 2    
   124   62   64 am   BACKBONE|DICT|INTERRES
   125   64   65 1    
   126   64  130 1    
   127   65   66 1    
   128   65   69 1    
   129   65  131 1    
   130   66   67 am   BACKBONE|DICT|INTERRES
   131   66   68 2    
   132   67  132 1    
   133   67  133 1    
   134   69   70 1    
   135   69  134 1    
   136   69  135 1    
   137   70   71 1    
   138   71  136 1    
   139   71  137 1    
@<TRIPOS>SUBSTRUCTURE
     1 UNK         1 GROUP             0       ****    0 ROOT    
