@<TRIPOS>MOLECULE
3R137
137   139    1
SMALL
USER_CHARGES


@<TRIPOS>ATOM
      1 CA         30.7332   -2.5000   -5.9323 C.3       0 UNK        -0.2020 
      2 C          29.7714   -3.5930   -5.4963 C.2       0 UNK         0.4855 
      3 O          29.5847   -4.5672   -6.2248 O.2       0 UNK        -0.5197 
      4 N          29.1465   -3.4367   -4.3222 N.am      1 UNK        -0.4892 
      5 CA         28.1847   -4.3944   -3.7540 C.3       1 UNK         0.0835 
      6 C6         28.0642   -4.2534   -2.2148 C.3       12 UNK        -0.0855 
      7 S7         29.6242   -4.6572   -1.3554 S.3       12 UNK        -0.2931 
      8 C8         29.9514   -3.1415   -0.4015 C.3       12 UNK         0.0378 
      9 C9         30.4836   -2.0229   -1.2834 C.ar      12 UNK        -0.0802 
     10 C10        31.8388   -1.9885   -1.6301 C.ar      12 UNK        -0.0944 
     11 C11        32.3371   -0.9642   -2.4406 C.ar      12 UNK        -0.0787 
     12 C12        31.4726    0.0331   -2.8974 C.ar      12 UNK        -0.0862 
     13 C13        30.1155    0.0003   -2.5668 C.ar      12 UNK        -0.0733 
     14 C14        29.6254   -1.0235   -1.7521 C.ar      12 UNK        -0.0832 
     15 C15        29.1749    1.0437   -3.1383 C.3       12 UNK         0.0240 
     16 S16        28.8073    0.6288   -4.8631 S.3       12 UNK        -0.2522 
     17 C17        27.6031    1.9156   -5.3058 C.3       12 UNK        -0.0967 
     18 CA         26.1937    1.2826   -5.4153 C.3       5 UNK         0.0660 
     19 N          25.5659    1.0052   -4.1210 N.am      5 UNK        -0.4015 
     20 C          25.1652    1.8873   -3.1949 C.2       4 UNK         0.4946 
     21 O          25.3618    3.1005   -3.2786 O.2       4 UNK        -0.5353 
     22 CA         24.3947    1.3249   -1.9778 C.3       4 UNK         0.0277 
     23 CB         23.4130    2.3550   -1.3879 C.3       4 UNK        -0.1981 
     24 N          23.6539    0.0987   -2.2966 N.am      4 UNK        -0.4209 
     25 C          24.1698   -1.1367   -2.3044 C.2       3 UNK         0.4942 
     26 O          25.3274   -1.3902   -1.9668 O.2       3 UNK        -0.5208 
     27 CA         23.2890   -2.2748   -2.8561 C.3       3 UNK         0.0250 
     28 CB         21.8490   -1.8547   -3.2352 C.3       3 UNK        -0.1990 
     29 N          23.9646   -2.9193   -3.9878 N.am      3 UNK        -0.4232 
     30 C          24.3443   -2.3403   -5.1365 C.2       2 UNK         0.4993 
     31 O          24.0467   -1.1873   -5.4586 O.2       2 UNK        -0.5286 
     32 CA         25.2859   -3.1657   -6.0298 C.3       2 UNK         0.0209 
     33 CB         25.5509   -2.4981   -7.3928 C.3       2 UNK        -0.1931 
     34 N          26.5655   -3.3924   -5.3502 N.am      2 UNK        -0.4546 
     35 C          26.7893   -4.3321   -4.4195 C.2       1 UNK         0.5154 
     36 O          25.9189   -5.1298   -4.0636 O.2       1 UNK        -0.5181 
     37 C          25.2273    2.0233   -6.3559 C.2       5 UNK         0.5014 
     38 O          25.5719    3.0571   -6.9314 O.2       5 UNK        -0.5248 
     39 N          24.0358    1.4348   -6.5318 N.am      6 UNK        -0.4434 
     40 CA         22.9985    1.8922   -7.4606 C.3       6 UNK         0.0363 
     41 CB         21.7103    1.0941   -7.2049 C.3       6 UNK        -0.1936 
     42 C          23.4221    1.7795   -8.9375 C.2       6 UNK         0.5081 
     43 O          22.9830    2.5851   -9.7577 O.2       6 UNK        -0.5248 
     44 N          24.2888    0.8029   -9.2378 N.am      7 UNK        -0.4718 
     45 CA         24.9040    0.5812  -10.5502 C.3       7 UNK         0.0273 
     46 CB         24.8717   -0.9276  -10.8569 C.3       7 UNK        -0.1935 
     47 C          26.3425    1.1366  -10.6260 C.2       7 UNK         0.5018 
     48 O          27.0648    0.7810  -11.5586 O.2       7 UNK        -0.5186 
     49 N          26.7269    1.9810   -9.6535 N.am      8 UNK        -0.4240 
     50 CA         28.0628    2.5352   -9.3882 C.3       8 UNK         0.0235 
     51 CB         28.6461    3.2570  -10.6222 C.3       8 UNK        -0.2000 
     52 C          29.0438    1.4937   -8.8135 C.2       8 UNK         0.4941 
     53 O          28.7888    0.2879   -8.8612 O.2       8 UNK        -0.5273 
     54 N          30.1430    1.9946   -8.2358 N.am      9 UNK        -0.4262 
     55 CA         31.2072    1.1840   -7.6423 C.3       9 UNK         0.0264 
     56 CB         31.9332    2.0113   -6.5677 C.3       9 UNK        -0.1955 
     57 C          32.1981    0.7014   -8.7122 C.2       9 UNK         0.5031 
     58 O          32.3994    1.3871   -9.7181 O.2       9 UNK        -0.5390 
     59 N          32.8308   -0.4469   -8.4492 N.am      10 UNK        -0.4204 
     60 CA         33.8488   -1.0642   -9.3033 C.3       10 UNK         0.0237 
     61 CB         33.1731   -1.9854  -10.3394 C.3       10 UNK        -0.1985 
     62 C          34.9038   -1.7895   -8.4492 C.2       10 UNK         0.4970 
     63 O          35.4015   -2.8425   -8.8507 O.2       10 UNK        -0.4914 
     64 N          35.2081   -1.2270   -7.2724 N.am      11 UNK        -0.4285 
     65 CA         36.1280   -1.8030   -6.2757 C.3       11 UNK         0.1007 
     66 C          37.6357   -1.5411   -6.5612 C.2       11 UNK         0.5703 
     67 N          37.9984   -0.7410   -7.5572 N.am      11 UNK        -0.7361 
     68 O          38.4950   -2.0849   -5.8714 O.2       11 UNK        -0.4986 
     69 C69        35.7423   -1.3757   -4.8341 C.3       12 UNK        -0.0947 
     70 S70        34.0259   -1.8284   -4.4216 S.3       12 UNK        -0.2240 
     71 C71        33.7996   -0.9435   -2.8522 C.3       12 UNK         0.0194 
     72 H72        30.8596   -1.7378   -5.1638 H         1 UNK         0.0906 
     73 H73        30.3581   -2.0204   -6.8357 H         1 UNK         0.0906 
     74 H74        31.7106   -2.9293   -6.1500 H         1 UNK         0.0906 
     75 H75        29.3616   -2.6349   -3.7444 H         1 UNK         0.3140 
     76 H76        28.5573   -5.4007   -3.9595 H         1 UNK         0.1085 
     77 H77        27.7230   -3.2526   -1.9461 H         1 UNK         0.0836 
     78 H78        27.3088   -4.9373   -1.8223 H         1 UNK         0.0836 
     79 H79        30.6837   -3.3683    0.3750 H         1 UNK         0.0731 
     80 H80        29.0453   -2.8301    0.1209 H         1 UNK         0.0731 
     81 H81        32.5022   -2.7680   -1.2807 H         1 UNK         0.1312 
     82 H82        31.8482    0.8171   -3.5409 H         1 UNK         0.1406 
     83 H83        28.5742   -1.0485   -1.4962 H         1 UNK         0.1631 
     84 H84        29.6316    2.0331   -3.0850 H         1 UNK         0.0717 
     85 H85        28.2476    1.0888   -2.5649 H         1 UNK         0.0717 
     86 H86        27.6277    2.7421   -4.5946 H         1 UNK         0.0934 
     87 H87        27.9299    2.3336   -6.2571 H         1 UNK         0.0934 
     88 H88        26.3169    0.3091   -5.8906 H         1 UNK         0.0739 
     89 H89        25.3278    0.0350   -3.9664 H         1 UNK         0.3093 
     90 H90        25.1398    1.0996   -1.2117 H         1 UNK         0.0818 
     91 H91        22.8858    1.9516   -0.5232 H         1 UNK         0.0819 
     92 H92        22.6682    2.6677   -2.1208 H         1 UNK         0.0819 
     93 H93        23.9369    3.2511   -1.0523 H         1 UNK         0.0819 
     94 H94        22.7083    0.2195   -2.6307 H         1 UNK         0.3041 
     95 H95        23.2220   -3.0218   -2.0638 H         1 UNK         0.0784 
     96 H96        21.3139   -1.4557   -2.3724 H         1 UNK         0.0793 
     97 H97        21.8242   -1.1005   -4.0226 H         1 UNK         0.0793 
     98 H98        21.2776   -2.7122   -3.5906 H         1 UNK         0.0793 
     99 H99        24.3400   -3.8446   -3.8037 H         1 UNK         0.3024 
    100 H100       24.7983   -4.1252   -6.2186 H         1 UNK         0.1171 
    101 H101       24.6147   -2.2936   -7.9140 H         1 UNK         0.0786 
    102 H102       26.0862   -1.5543   -7.2922 H         1 UNK         0.0786 
    103 H103       26.1437   -3.1463   -8.0386 H         1 UNK         0.0786 
    104 H104       27.3227   -2.7629   -5.5729 H         1 UNK         0.2977 
    105 H105       23.8684    0.5473   -6.0577 H         1 UNK         0.3127 
    106 H106       22.8004    2.9459   -7.2526 H         1 UNK         0.0770 
    107 H107       21.8590    0.0254   -7.3669 H         1 UNK         0.0814 
    108 H108       20.9103    1.4185   -7.8718 H         1 UNK         0.0814 
    109 H109       21.3556    1.2309   -6.1832 H         1 UNK         0.0814 
    110 H110       24.5867    0.1901   -8.4928 H         1 UNK         0.2983 
    111 H111       24.3261    1.0937  -11.3225 H         1 UNK         0.0947 
    112 H112       25.5203   -1.4894  -10.1843 H         1 UNK         0.0806 
    113 H113       25.2102   -1.1276  -11.8744 H         1 UNK         0.0806 
    114 H114       23.8628   -1.3312  -10.7698 H         1 UNK         0.0806 
    115 H115       26.0378    2.2076   -8.9474 H         1 UNK         0.3000 
    116 H116       27.9085    3.2854   -8.6109 H         1 UNK         0.0850 
    117 H117       29.5302    3.8372  -10.3564 H         1 UNK         0.0810 
    118 H118       27.9251    3.9501  -11.0558 H         1 UNK         0.0810 
    119 H119       28.9494    2.5560  -11.4003 H         1 UNK         0.0810 
    120 H120       30.3096    2.9894   -8.2772 H         1 UNK         0.3040 
    121 H121       30.7583    0.3147   -7.1593 H         1 UNK         0.0766 
    122 H122       32.6959    1.4169   -6.0631 H         1 UNK         0.0812 
    123 H123       31.2406    2.3604   -5.8015 H         1 UNK         0.0812 
    124 H124       32.4285    2.8844   -6.9948 H         1 UNK         0.0812 
    125 H125       32.6206   -0.9400   -7.5923 H         1 UNK         0.3205 
    126 H126       34.3883   -0.2826   -9.8426 H         1 UNK         0.0754 
    127 H127       32.6413   -2.8072   -9.8584 H         1 UNK         0.0769 
    128 H128       33.9069   -2.4207  -11.0190 H         1 UNK         0.0769 
    129 H129       32.4569   -1.4359  -10.9509 H         1 UNK         0.0769 
    130 H130       34.7942   -0.3404   -7.0282 H         1 UNK         0.2981 
    131 H131       36.0178   -2.8884   -6.3191 H         1 UNK         0.0541 
    132 H132       37.3048   -0.2936   -8.1339 H         1 UNK         0.3459 
    133 H133       38.9786   -0.5858   -7.7330 H         1 UNK         0.3459 
    134 H134       35.8643   -0.2979   -4.7122 H         1 UNK         0.0612 
    135 H135       36.3972   -1.8493   -4.1003 H         1 UNK         0.0612 
    136 H136       34.1417    0.0872   -2.9583 H         1 UNK         0.0624 
    137 H137       34.4216   -1.4028   -2.0824 H         1 UNK         0.0624 
@<TRIPOS>BOND
     1    1    2 1    
     2    1   72 1    
     3    1   73 1    
     4    1   74 1    
     5    2    3 2    
     6    2    4 am   BACKBONE|DICT|INTERRES
     7    4    5 1    
     8    4   75 1    
     9    5    6 1    
    10    5   35 1    
    11    5   76 1    
    12    6    7 1    
    13    6   77 1    
    14    6   78 1    
    15    7    8 1    
    16    8    9 1    
    17    8   79 1    
    18    8   80 1    
    19    9   10 ar   
    20    9   14 ar   
    21   10   11 ar   
    22   10   81 1    
    23   11   12 ar   
    24   11   71 1    
    25   12   13 ar   
    26   12   82 1    
    27   13   14 ar   
    28   13   15 1    
    29   14   83 1    
    30   15   16 1    
    31   15   84 1    
    32   15   85 1    
    33   16   17 1    
    34   17   18 1    
    35   17   86 1    
    36   17   87 1    
    37   18   19 1    
    38   18   37 1    
    39   18   88 1    
    40   19   20 am   BACKBONE|DICT|INTERRES
    41   19   89 1    
    42   20   21 2    
    43   20   22 1    
    44   22   23 1    
    45   22   24 1    
    46   22   90 1    
    47   23   91 1    
    48   23   92 1    
    49   23   93 1    
    50   24   25 am   BACKBONE|DICT|INTERRES
    51   24   94 1    
    52   25   26 2    
    53   25   27 1    
    54   27   28 1    
    55   27   29 1    
    56   27   95 1    
    57   28   96 1    
    58   28   97 1    
    59   28   98 1    
    60   29   30 am   BACKBONE|DICT|INTERRES
    61   29   99 1    
    62   30   31 2    
    63   30   32 1    
    64   32   33 1    
    65   32   34 1    
    66   32  100 1    
    67   33  101 1    
    68   33  102 1    
    69   33  103 1    
    70   34   35 am   BACKBONE|DICT|INTERRES
    71   34  104 1    
    72   35   36 2    
    73   37   38 2    
    74   37   39 am   BACKBONE|DICT|INTERRES
    75   39   40 1    
    76   39  105 1    
    77   40   41 1    
    78   40   42 1    
    79   40  106 1    
    80   41  107 1    
    81   41  108 1    
    82   41  109 1    
    83   42   43 2    
    84   42   44 am   BACKBONE|DICT|INTERRES
    85   44   45 1    
    86   44  110 1    
    87   45   46 1    
    88   45   47 1    
    89   45  111 1    
    90   46  112 1    
    91   46  113 1    
    92   46  114 1    
    93   47   48 2    
    94   47   49 am   BACKBONE|DICT|INTERRES
    95   49   50 1    
    96   49  115 1    
    97   50   51 1    
    98   50   52 1    
    99   50  116 1    
   100   51  117 1    
   101   51  118 1    
   102   51  119 1    
   103   52   53 2    
   104   52   54 am   BACKBONE|DICT|INTERRES
   105   54   55 1    
   106   54  120 1    
   107   55   56 1    
   108   55   57 1    
   109   55  121 1    
   110   56  122 1    
   111   56  123 1    
   112   56  124 1    
   113   57   58 2    
   114   57   59 am   BACKBONE|DICT|INTERRES
   115   59   60 1    
   116   59  125 1    
   117   60   61 1    
   118   60   62 1    
   119   60  126 1    
   120   61  127 1    
   121   61  128 1    
   122   61  129 1    
   123   62   63 2    
   124   62   64 am   BACKBONE|DICT|INTERRES
   125   64   65 1    
   126   64  130 1    
   127   65   66 1    
   128   65   69 1    
   129   65  131 1    
   130   66   67 am   BACKBONE|DICT|INTERRES
   131   66   68 2    
   132   67  132 1    
   133   67  133 1    
   134   69   70 1    
   135   69  134 1    
   136   69  135 1    
   137   70   71 1    
   138   71  136 1    
   139   71  137 1    
@<TRIPOS>SUBSTRUCTURE
     1 UNK         1 GROUP             0       ****    0 ROOT    
