@<TRIPOS>MOLECULE
3R137
137   139    1
SMALL
USER_CHARGES


@<TRIPOS>ATOM
      1 CA         29.0177   -6.5624   -0.4420 C.3       0 UNK        -0.2020 
      2 C          28.2030   -5.3948    0.0940 C.2       0 UNK         0.4855 
      3 O          27.2699   -5.6026    0.8697 O.2       0 UNK        -0.5197 
      4 N          28.5493   -4.1673   -0.3143 N.am      1 UNK        -0.4892 
      5 CA         27.8763   -2.9262    0.0911 C.3       1 UNK         0.0835 
      6 C6         28.7392   -1.6779   -0.2122 C.3       12 UNK        -0.0855 
      7 S7         30.3418   -1.6525    0.6718 S.3       12 UNK        -0.2931 
      8 C8         31.5132   -2.4812   -0.4646 C.3       12 UNK         0.0378 
      9 C9         31.3481   -2.0649   -1.9211 C.ar      12 UNK        -0.0802 
     10 C10        31.4886   -0.7266   -2.2939 C.ar      12 UNK        -0.0944 
     11 C11        31.2882   -0.3279   -3.6178 C.ar      12 UNK        -0.0787 
     12 C12        30.9413   -1.2910   -4.5756 C.ar      12 UNK        -0.0862 
     13 C13        30.8319   -2.6446   -4.2257 C.ar      12 UNK        -0.0733 
     14 C14        31.0394   -3.0182   -2.8950 C.ar      12 UNK        -0.0832 
     15 C15        30.5374   -3.7484   -5.2443 C.3       12 UNK         0.0240 
     16 S16        29.7222   -3.2227   -6.7873 S.3       12 UNK        -0.2522 
     17 C17        28.0730   -2.7371   -6.1915 C.3       12 UNK        -0.0967 
     18 CA         27.3990   -1.7054   -7.1285 C.3       5 UNK         0.0660 
     19 N          25.9486   -1.6651   -6.9260 N.am      5 UNK        -0.4015 
     20 C          25.0773   -1.0803   -7.7611 C.2       4 UNK         0.4946 
     21 O          25.4009   -0.5291   -8.8121 O.2       4 UNK        -0.5353 
     22 CA         23.5973   -1.0779   -7.3401 C.3       4 UNK         0.0277 
     23 CB         22.9038   -2.3685   -7.8043 C.3       4 UNK        -0.1981 
     24 N          23.4090   -0.9108   -5.8971 N.am      4 UNK        -0.4209 
     25 C          23.7645    0.1821   -5.2060 C.2       3 UNK         0.4942 
     26 O          24.2464    1.1894   -5.7200 O.2       3 UNK        -0.5208 
     27 CA         23.6109    0.1219   -3.6778 C.3       3 UNK         0.0250 
     28 CB         22.2140    0.6047   -3.2568 C.3       3 UNK        -0.1990 
     29 N          23.8655   -1.2080   -3.1126 N.am      3 UNK        -0.4232 
     30 C          25.0251   -1.8717   -3.2176 C.2       2 UNK         0.4993 
     31 O          26.0021   -1.4563   -3.8478 O.2       2 UNK        -0.5286 
     32 CA         25.0884   -3.2565   -2.5566 C.3       2 UNK         0.0209 
     33 CB         25.0759   -4.3634   -3.6238 C.3       2 UNK        -0.1931 
     34 N          26.2952   -3.3857   -1.7424 N.am      2 UNK        -0.4546 
     35 C          26.4897   -2.7671   -0.5686 C.2       1 UNK         0.5154 
     36 O          25.6289   -2.0859   -0.0086 O.2       1 UNK        -0.5181 
     37 C          28.0186   -0.3016   -6.9878 C.2       5 UNK         0.5014 
     38 O          28.8543    0.0833   -7.8099 O.2       5 UNK        -0.5248 
     39 N          27.5596    0.4465   -5.9736 N.am      6 UNK        -0.4434 
     40 CA         27.9272    1.8425   -5.7429 C.3       6 UNK         0.0363 
     41 CB         27.4285    2.2870   -4.3593 C.3       6 UNK        -0.1936 
     42 C          27.4147    2.7801   -6.8491 C.2       6 UNK         0.5081 
     43 O          28.1702    3.6392   -7.3008 O.2       6 UNK        -0.5248 
     44 N          26.1648    2.5821   -7.2942 N.am      7 UNK        -0.4718 
     45 CA         25.5403    3.3272   -8.3934 C.3       7 UNK         0.0273 
     46 CB         24.0451    2.9824   -8.4743 C.3       7 UNK        -0.1935 
     47 C          26.2250    3.0884   -9.7496 C.2       7 UNK         0.5018 
     48 O          26.4088    4.0411  -10.5080 O.2       7 UNK        -0.5186 
     49 N          26.6200    1.8352  -10.0168 N.am      8 UNK        -0.4240 
     50 CA         27.4227    1.4480  -11.1814 C.3       8 UNK         0.0235 
     51 CB         27.3640   -0.0798  -11.3470 C.3       8 UNK        -0.2000 
     52 C          28.8896    1.9105  -11.0960 C.2       8 UNK         0.4941 
     53 O          29.5680    1.9246  -12.1238 O.2       8 UNK        -0.5273 
     54 N          29.3519    2.2503   -9.8826 N.am      9 UNK        -0.4262 
     55 CA         30.7246    2.5995   -9.5053 C.3       9 UNK         0.0264 
     56 CB         31.1568    3.9320  -10.1522 C.3       9 UNK        -0.1955 
     57 C          31.7130    1.4474   -9.7655 C.2       9 UNK         0.5031 
     58 O          32.8515    1.6874  -10.1715 O.2       9 UNK        -0.5390 
     59 N          31.2691    0.2101   -9.5059 N.am      10 UNK        -0.4204 
     60 CA         32.0360   -1.0243   -9.7068 C.3       10 UNK         0.0237 
     61 CB         31.0765   -2.1236  -10.1984 C.3       10 UNK        -0.1985 
     62 C          32.8179   -1.4245   -8.4387 C.2       10 UNK         0.4970 
     63 O          32.9720   -2.6122   -8.1524 O.2       10 UNK        -0.4914 
     64 N          33.2833   -0.4166   -7.6944 N.am      11 UNK        -0.4285 
     65 CA         33.8949   -0.5267   -6.3634 C.3       11 UNK         0.1007 
     66 C          35.3671   -1.0296   -6.3534 C.2       11 UNK         0.5703 
     67 N          36.0278   -1.1835   -7.4949 N.am      11 UNK        -0.7361 
     68 O          35.9198   -1.2913   -5.2877 O.2       11 UNK        -0.4986 
     69 C69        33.7444    0.8020   -5.5697 C.3       12 UNK        -0.0947 
     70 S70        32.0555    1.5043   -5.6350 S.3       12 UNK        -0.2240 
     71 C71        31.4223    1.1545   -3.9616 C.3       12 UNK         0.0194 
     72 H72        28.3740   -7.2461   -0.9950 H         1 UNK         0.0906 
     73 H73        29.8157   -6.2348   -1.1078 H         1 UNK         0.0906 
     74 H74        29.4700   -7.1131    0.3825 H         1 UNK         0.0906 
     75 H75        29.3323   -4.0494   -0.9378 H         1 UNK         0.3140 
     76 H76        27.7100   -2.9704    1.1700 H         1 UNK         0.1085 
     77 H77        28.8839   -1.5582   -1.2864 H         1 UNK         0.0836 
     78 H78        28.2058   -0.7782    0.1022 H         1 UNK         0.0836 
     79 H79        32.5304   -2.2502   -0.1455 H         1 UNK         0.0731 
     80 H80        31.4036   -3.5607   -0.3532 H         1 UNK         0.0731 
     81 H81        31.7328    0.0099   -1.5402 H         1 UNK         0.1312 
     82 H82        30.7823   -0.9850   -5.5997 H         1 UNK         0.1406 
     83 H83        30.9634   -4.0615   -2.6207 H         1 UNK         0.1631 
     84 H84        29.9228   -4.5245   -4.7853 H         1 UNK         0.0717 
     85 H85        31.4835   -4.2213   -5.5109 H         1 UNK         0.0717 
     86 H86        27.4744   -3.6478   -6.1437 H         1 UNK         0.0934 
     87 H87        28.1365   -2.3629   -5.1677 H         1 UNK         0.0934 
     88 H88        27.5606   -2.0272   -8.1601 H         1 UNK         0.0739 
     89 H89        25.6109   -2.0221   -6.0432 H         1 UNK         0.3093 
     90 H90        23.1146   -0.2345   -7.8378 H         1 UNK         0.0818 
     91 H91        21.8347   -2.3430   -7.5925 H         1 UNK         0.0819 
     92 H92        23.0148   -2.5037   -8.8812 H         1 UNK         0.0819 
     93 H93        23.3220   -3.2521   -7.3204 H         1 UNK         0.0819 
     94 H94        23.0074   -1.6872   -5.3923 H         1 UNK         0.3041 
     95 H95        24.3500    0.8039   -3.2518 H         1 UNK         0.0784 
     96 H96        22.0115    1.6019   -3.6508 H         1 UNK         0.0793 
     97 H97        21.4280   -0.0564   -3.6241 H         1 UNK         0.0793 
     98 H98        22.1244    0.6641   -2.1719 H         1 UNK         0.0793 
     99 H99        23.1124   -1.6214   -2.5809 H         1 UNK         0.3024 
    100 H100       24.2194   -3.3888   -1.9077 H         1 UNK         0.1171 
    101 H101       24.1815   -4.2999   -4.2451 H         1 UNK         0.0786 
    102 H102       25.0802   -5.3531   -3.1664 H         1 UNK         0.0786 
    103 H103       25.9398   -4.2983   -4.2859 H         1 UNK         0.0786 
    104 H104       27.0629   -3.9052   -2.1402 H         1 UNK         0.2977 
    105 H105       26.8881    0.0359   -5.3356 H         1 UNK         0.3127 
    106 H106       29.0168    1.9007   -5.7486 H         1 UNK         0.0770 
    107 H107       26.3409    2.2529   -4.2901 H         1 UNK         0.0814 
    108 H108       27.7370    3.3113   -4.1464 H         1 UNK         0.0814 
    109 H109       27.8342    1.6545   -3.5694 H         1 UNK         0.0814 
    110 H110       25.5765    1.9039   -6.8138 H         1 UNK         0.2983 
    111 H111       25.6317    4.3909   -8.1633 H         1 UNK         0.0947 
    112 H112       23.5551    3.5512   -9.2656 H         1 UNK         0.0806 
    113 H113       23.5327    3.2173   -7.5412 H         1 UNK         0.0806 
    114 H114       23.8870    1.9249   -8.6861 H         1 UNK         0.0806 
    115 H115       26.3538    1.0886   -9.3794 H         1 UNK         0.3000 
    116 H116       26.9843    1.9084  -12.0693 H         1 UNK         0.0850 
    117 H117       27.9307   -0.4028  -12.2213 H         1 UNK         0.0810 
    118 H118       26.3386   -0.4253  -11.4797 H         1 UNK         0.0810 
    119 H119       27.7805   -0.5939  -10.4795 H         1 UNK         0.0810 
    120 H120       28.7047    2.1833   -9.1072 H         1 UNK         0.3040 
    121 H121       30.7105    2.7468   -8.4241 H         1 UNK         0.0766 
    122 H122       30.4398    4.7249   -9.9392 H         1 UNK         0.0812 
    123 H123       31.2518    3.8457  -11.2350 H         1 UNK         0.0812 
    124 H124       32.1236    4.2574   -9.7663 H         1 UNK         0.0812 
    125 H125       30.3546    0.1125   -9.0683 H         1 UNK         0.3205 
    126 H126       32.7789   -0.8665  -10.4914 H         1 UNK         0.0754 
    127 H127       31.6010   -3.0650  -10.3670 H         1 UNK         0.0769 
    128 H128       30.6092   -1.8422  -11.1423 H         1 UNK         0.0769 
    129 H129       30.2798   -2.3129   -9.4801 H         1 UNK         0.0769 
    130 H130       33.1413    0.5244   -8.0302 H         1 UNK         0.2981 
    131 H131       33.3379   -1.2930   -5.8243 H         1 UNK         0.0541 
    132 H132       35.5807   -0.9776   -8.3737 H         1 UNK         0.3459 
    133 H133       36.9797   -1.5136   -7.4753 H         1 UNK         0.3459 
    134 H134       34.4240    1.5568   -5.9692 H         1 UNK         0.0612 
    135 H135       34.0326    0.6570   -4.5270 H         1 UNK         0.0612 
    136 H136       30.4436    1.6212   -3.8539 H         1 UNK         0.0624 
    137 H137       32.0776    1.6513   -3.2443 H         1 UNK         0.0624 
@<TRIPOS>BOND
     1    1    2 1    
     2    1   72 1    
     3    1   73 1    
     4    1   74 1    
     5    2    3 2    
     6    2    4 am   BACKBONE|DICT|INTERRES
     7    4    5 1    
     8    4   75 1    
     9    5    6 1    
    10    5   35 1    
    11    5   76 1    
    12    6    7 1    
    13    6   77 1    
    14    6   78 1    
    15    7    8 1    
    16    8    9 1    
    17    8   79 1    
    18    8   80 1    
    19    9   10 ar   
    20    9   14 ar   
    21   10   11 ar   
    22   10   81 1    
    23   11   12 ar   
    24   11   71 1    
    25   12   13 ar   
    26   12   82 1    
    27   13   14 ar   
    28   13   15 1    
    29   14   83 1    
    30   15   16 1    
    31   15   84 1    
    32   15   85 1    
    33   16   17 1    
    34   17   18 1    
    35   17   86 1    
    36   17   87 1    
    37   18   19 1    
    38   18   37 1    
    39   18   88 1    
    40   19   20 am   BACKBONE|DICT|INTERRES
    41   19   89 1    
    42   20   21 2    
    43   20   22 1    
    44   22   23 1    
    45   22   24 1    
    46   22   90 1    
    47   23   91 1    
    48   23   92 1    
    49   23   93 1    
    50   24   25 am   BACKBONE|DICT|INTERRES
    51   24   94 1    
    52   25   26 2    
    53   25   27 1    
    54   27   28 1    
    55   27   29 1    
    56   27   95 1    
    57   28   96 1    
    58   28   97 1    
    59   28   98 1    
    60   29   30 am   BACKBONE|DICT|INTERRES
    61   29   99 1    
    62   30   31 2    
    63   30   32 1    
    64   32   33 1    
    65   32   34 1    
    66   32  100 1    
    67   33  101 1    
    68   33  102 1    
    69   33  103 1    
    70   34   35 am   BACKBONE|DICT|INTERRES
    71   34  104 1    
    72   35   36 2    
    73   37   38 2    
    74   37   39 am   BACKBONE|DICT|INTERRES
    75   39   40 1    
    76   39  105 1    
    77   40   41 1    
    78   40   42 1    
    79   40  106 1    
    80   41  107 1    
    81   41  108 1    
    82   41  109 1    
    83   42   43 2    
    84   42   44 am   BACKBONE|DICT|INTERRES
    85   44   45 1    
    86   44  110 1    
    87   45   46 1    
    88   45   47 1    
    89   45  111 1    
    90   46  112 1    
    91   46  113 1    
    92   46  114 1    
    93   47   48 2    
    94   47   49 am   BACKBONE|DICT|INTERRES
    95   49   50 1    
    96   49  115 1    
    97   50   51 1    
    98   50   52 1    
    99   50  116 1    
   100   51  117 1    
   101   51  118 1    
   102   51  119 1    
   103   52   53 2    
   104   52   54 am   BACKBONE|DICT|INTERRES
   105   54   55 1    
   106   54  120 1    
   107   55   56 1    
   108   55   57 1    
   109   55  121 1    
   110   56  122 1    
   111   56  123 1    
   112   56  124 1    
   113   57   58 2    
   114   57   59 am   BACKBONE|DICT|INTERRES
   115   59   60 1    
   116   59  125 1    
   117   60   61 1    
   118   60   62 1    
   119   60  126 1    
   120   61  127 1    
   121   61  128 1    
   122   61  129 1    
   123   62   63 2    
   124   62   64 am   BACKBONE|DICT|INTERRES
   125   64   65 1    
   126   64  130 1    
   127   65   66 1    
   128   65   69 1    
   129   65  131 1    
   130   66   67 am   BACKBONE|DICT|INTERRES
   131   66   68 2    
   132   67  132 1    
   133   67  133 1    
   134   69   70 1    
   135   69  134 1    
   136   69  135 1    
   137   70   71 1    
   138   71  136 1    
   139   71  137 1    
@<TRIPOS>SUBSTRUCTURE
     1 UNK         1 GROUP             0       ****    0 ROOT    
