@<TRIPOS>MOLECULE
3R137
137   139    1
SMALL
USER_CHARGES


@<TRIPOS>ATOM
      1 CA         25.7718   -6.9735   -1.3745 C.3       0 UNK        -0.2020 
      2 C          26.4027   -5.5895   -1.3914 C.2       0 UNK         0.4855 
      3 O          26.2141   -4.8186   -0.4509 O.2       0 UNK        -0.5197 
      4 N          27.1421   -5.2625   -2.4588 N.am      1 UNK        -0.4892 
      5 CA         27.8545   -3.9891   -2.6307 C.3       1 UNK         0.0835 
      6 C6         29.1056   -4.1428   -3.5376 C.3       12 UNK        -0.0855 
      7 S7         30.4052   -5.2223   -2.8473 S.3       12 UNK        -0.2931 
      8 C8         31.0592   -4.2627   -1.4340 C.3       12 UNK         0.0378 
      9 C9         31.3687   -2.8066   -1.7676 C.ar      12 UNK        -0.0802 
     10 C10        32.5166   -2.4655   -2.4893 C.ar      12 UNK        -0.0944 
     11 C11        32.7997   -1.1259   -2.7762 C.ar      12 UNK        -0.0787 
     12 C12        31.9159   -0.1282   -2.3499 C.ar      12 UNK        -0.0862 
     13 C13        30.7563   -0.4505   -1.6364 C.ar      12 UNK        -0.0733 
     14 C14        30.5075   -1.7950   -1.3311 C.ar      12 UNK        -0.0832 
     15 C15        29.8119    0.6752   -1.2012 C.3       12 UNK         0.0240 
     16 S16        28.0797    0.1426   -0.9276 S.3       12 UNK        -0.2522 
     17 C17        27.0002    1.3984   -1.7086 C.3       12 UNK        -0.0967 
     18 CA         27.4334    1.9724   -3.0839 C.3       5 UNK         0.0660 
     19 N          27.8458    0.9414   -4.0406 N.am      5 UNK        -0.4015 
     20 C          28.5097    1.1977   -5.1775 C.2       4 UNK         0.4946 
     21 O          28.7564    2.3327   -5.5810 O.2       4 UNK        -0.5353 
     22 CA         28.9833   -0.0039   -6.0035 C.3       4 UNK         0.0277 
     23 CB         30.1612   -0.6869   -5.2990 C.3       4 UNK        -0.1981 
     24 N          27.8927   -0.9573   -6.1879 N.am      4 UNK        -0.4209 
     25 C          27.2089   -1.1220   -7.3269 C.2       3 UNK         0.4942 
     26 O          27.5199   -0.5732   -8.3835 O.2       3 UNK        -0.5208 
     27 CA         25.9846   -2.0599   -7.3143 C.3       3 UNK         0.0250 
     28 CB         26.2984   -3.3668   -8.0579 C.3       3 UNK        -0.1990 
     29 N          25.4787   -2.3787   -5.9791 N.am      3 UNK        -0.4232 
     30 C          24.9645   -1.4934   -5.1149 C.2       2 UNK         0.4993 
     31 O          24.8177   -0.2956   -5.3654 O.2       2 UNK        -0.5286 
     32 CA         24.6649   -2.0254   -3.7016 C.3       2 UNK         0.0209 
     33 CB         23.2392   -2.5927   -3.6281 C.3       2 UNK        -0.1931 
     34 N          25.6277   -3.0388   -3.2365 N.am      2 UNK        -0.4546 
     35 C          26.9523   -2.8413   -3.1393 C.2       1 UNK         0.5154 
     36 O          27.4798   -1.7838   -3.4831 O.2       1 UNK        -0.5181 
     37 C          26.3394    2.9082   -3.6371 C.2       5 UNK         0.5014 
     38 O          26.3792    4.1028   -3.3360 O.2       5 UNK        -0.5248 
     39 N          25.3857    2.3671   -4.4102 N.am      6 UNK        -0.4434 
     40 CA         24.2808    3.1297   -4.9921 C.3       6 UNK         0.0363 
     41 CB         22.9444    2.4164   -4.7196 C.3       6 UNK        -0.1936 
     42 C          24.4925    3.3513   -6.4940 C.2       6 UNK         0.5081 
     43 O          24.4391    4.4971   -6.9418 O.2       6 UNK        -0.5248 
     44 N          24.7052    2.2659   -7.2539 N.am      7 UNK        -0.4718 
     45 CA         24.7554    2.3242   -8.7222 C.3       7 UNK         0.0273 
     46 CB         24.3889    0.9554   -9.3158 C.3       7 UNK        -0.1935 
     47 C          26.0988    2.8151   -9.2909 C.2       7 UNK         0.5018 
     48 O          26.1151    3.2966  -10.4244 O.2       7 UNK        -0.5186 
     49 N          27.1871    2.6778   -8.5165 N.am      8 UNK        -0.4240 
     50 CA         28.5711    3.0417   -8.8620 C.3       8 UNK         0.0235 
     51 CB         28.7214    4.5758   -8.9484 C.3       8 UNK        -0.2000 
     52 C          29.1228    2.3121  -10.1057 C.2       8 UNK         0.4941 
     53 O          29.9251    2.8849  -10.8461 O.2       8 UNK        -0.5273 
     54 N          28.6857    1.0642  -10.3121 N.am      9 UNK        -0.4262 
     55 CA         29.0827    0.2049  -11.4258 C.3       9 UNK         0.0264 
     56 CB         27.8306   -0.4812  -11.9983 C.3       9 UNK        -0.1955 
     57 C          30.1145   -0.8445  -10.9878 C.2       9 UNK         0.5031 
     58 O          31.0649   -1.0979  -11.7301 O.2       9 UNK        -0.5390 
     59 N          29.9068   -1.4489   -9.8103 N.am      10 UNK        -0.4204 
     60 CA         30.7740   -2.4891   -9.2523 C.3       10 UNK         0.0237 
     61 CB         29.9350   -3.4224   -8.3622 C.3       10 UNK        -0.1985 
     62 C          31.9641   -1.9031   -8.4735 C.2       10 UNK         0.4970 
     63 O          31.9875   -0.7078   -8.1772 O.2       10 UNK        -0.4914 
     64 N          32.9172   -2.7889   -8.1589 N.am      11 UNK        -0.4285 
     65 CA         34.1478   -2.5723   -7.3772 C.3       11 UNK         0.1007 
     66 C          35.2373   -1.6656   -8.0298 C.2       11 UNK         0.5703 
     67 N          35.0401   -1.1460   -9.2354 N.am      11 UNK        -0.7361 
     68 O          36.3090   -1.4794   -7.4576 O.2       11 UNK        -0.4986 
     69 C69        33.8778   -2.3192   -5.8582 C.3       12 UNK        -0.0947 
     70 S70        33.7990   -0.5766   -5.3128 S.3       12 UNK        -0.2240 
     71 C71        34.0722   -0.7443   -3.5209 C.3       12 UNK         0.0194 
     72 H72        26.0133   -7.5439   -2.2712 H         1 UNK         0.0906 
     73 H73        26.1257   -7.5356   -0.5106 H         1 UNK         0.0906 
     74 H74        24.6873   -6.8916   -1.3062 H         1 UNK         0.0906 
     75 H75        27.2716   -5.9381   -3.1994 H         1 UNK         0.3140 
     76 H76        28.1950   -3.6607   -1.6481 H         1 UNK         0.1085 
     77 H77        29.5717   -3.1817   -3.7496 H         1 UNK         0.0836 
     78 H78        28.8167   -4.5412   -4.5119 H         1 UNK         0.0836 
     79 H79        31.9674   -4.7486   -1.0744 H         1 UNK         0.0731 
     80 H80        30.3462   -4.3221   -0.6103 H         1 UNK         0.0731 
     81 H81        33.1915   -3.2426   -2.8213 H         1 UNK         0.1312 
     82 H82        32.1332    0.9060   -2.5802 H         1 UNK         0.1406 
     83 H83        29.6349   -2.0624   -0.7540 H         1 UNK         0.1631 
     84 H84        29.8552    1.4736   -1.9380 H         1 UNK         0.0717 
     85 H85        30.1884    1.1030   -0.2714 H         1 UNK         0.0717 
     86 H86        26.0140    0.9375   -1.7943 H         1 UNK         0.0934 
     87 H87        26.8804    2.2140   -0.9926 H         1 UNK         0.0934 
     88 H88        28.2988    2.6156   -2.9187 H         1 UNK         0.0739 
     89 H89        27.7091   -0.0259   -3.7499 H         1 UNK         0.3093 
     90 H90        29.3423    0.3630   -6.9675 H         1 UNK         0.0818 
     91 H91        29.9041   -1.0134   -4.2933 H         1 UNK         0.0819 
     92 H92        30.5240   -1.5527   -5.8495 H         1 UNK         0.0819 
     93 H93        30.9939    0.0091   -5.2057 H         1 UNK         0.0819 
     94 H94        27.5747   -1.4313   -5.3483 H         1 UNK         0.3041 
     95 H95        25.1807   -1.5536   -7.8485 H         1 UNK         0.0784 
     96 H96        26.6720   -3.1664   -9.0634 H         1 UNK         0.0793 
     97 H97        27.0526   -3.9570   -7.5367 H         1 UNK         0.0793 
     98 H98        25.4064   -3.9842   -8.1660 H         1 UNK         0.0793 
     99 H99        25.5703   -3.3370   -5.6749 H         1 UNK         0.3024 
    100 H100       24.7312   -1.1742   -3.0203 H         1 UNK         0.1171 
    101 H101       22.9781   -2.8780   -2.6087 H         1 UNK         0.0786 
    102 H102       22.5073   -1.8511   -3.9520 H         1 UNK         0.0786 
    103 H103       23.1184   -3.4704   -4.2644 H         1 UNK         0.0786 
    104 H104       25.2569   -3.9272   -2.9314 H         1 UNK         0.2977 
    105 H105       25.4129    1.3754   -4.6340 H         1 UNK         0.3127 
    106 H106       24.2133    4.1154   -4.5264 H         1 UNK         0.0770 
    107 H107       22.8941    1.4330   -5.1864 H         1 UNK         0.0814 
    108 H108       22.1088    3.0001   -5.1079 H         1 UNK         0.0814 
    109 H109       22.7780    2.2861   -3.6503 H         1 UNK         0.0814 
    110 H110       24.7238    1.3525   -6.8141 H         1 UNK         0.2983 
    111 H111       23.9927    3.0323   -9.0555 H         1 UNK         0.0947 
    112 H112       24.1984    1.0421  -10.3863 H         1 UNK         0.0806 
    113 H113       23.4898    0.5414   -8.8592 H         1 UNK         0.0806 
    114 H114       25.1960    0.2364   -9.2004 H         1 UNK         0.0806 
    115 H115       27.0586    2.2746   -7.5991 H         1 UNK         0.3000 
    116 H116       29.1976    2.7035   -8.0381 H         1 UNK         0.0850 
    117 H117       29.7672    4.8619   -9.0668 H         1 UNK         0.0810 
    118 H118       28.3564    5.0595   -8.0424 H         1 UNK         0.0810 
    119 H119       28.1728    4.9891   -9.7952 H         1 UNK         0.0810 
    120 H120       28.0697    0.6444   -9.6183 H         1 UNK         0.3040 
    121 H121       29.5310    0.8033  -12.2218 H         1 UNK         0.0766 
    122 H122       27.1133    0.2529  -12.3660 H         1 UNK         0.0812 
    123 H123       27.3251   -1.0949  -11.2511 H         1 UNK         0.0812 
    124 H124       28.0892   -1.1307  -12.8357 H         1 UNK         0.0812 
    125 H125       29.1172   -1.1526   -9.2443 H         1 UNK         0.3205 
    126 H126       31.1764   -3.0854  -10.0744 H         1 UNK         0.0754 
    127 H127       30.5317   -4.2492   -7.9755 H         1 UNK         0.0769 
    128 H128       29.1127   -3.8630   -8.9252 H         1 UNK         0.0769 
    129 H129       29.5170   -2.9001   -7.5036 H         1 UNK         0.0769 
    130 H130       32.7996   -3.7364   -8.4872 H         1 UNK         0.2981 
    131 H131       34.6130   -3.5579   -7.4187 H         1 UNK         0.0541 
    132 H132       34.1610   -1.2780   -9.7089 H         1 UNK         0.3459 
    133 H133       35.7615   -0.5800   -9.6532 H         1 UNK         0.3459 
    134 H134       34.6753   -2.7967   -5.2871 H         1 UNK         0.0612 
    135 H135       32.9598   -2.8188   -5.5445 H         1 UNK         0.0612 
    136 H136       34.4430    0.2082   -3.1396 H         1 UNK         0.0624 
    137 H137       34.8632   -1.4706   -3.3293 H         1 UNK         0.0624 
@<TRIPOS>BOND
     1    1    2 1    
     2    1   72 1    
     3    1   73 1    
     4    1   74 1    
     5    2    3 2    
     6    2    4 am   BACKBONE|DICT|INTERRES
     7    4    5 1    
     8    4   75 1    
     9    5    6 1    
    10    5   35 1    
    11    5   76 1    
    12    6    7 1    
    13    6   77 1    
    14    6   78 1    
    15    7    8 1    
    16    8    9 1    
    17    8   79 1    
    18    8   80 1    
    19    9   10 ar   
    20    9   14 ar   
    21   10   11 ar   
    22   10   81 1    
    23   11   12 ar   
    24   11   71 1    
    25   12   13 ar   
    26   12   82 1    
    27   13   14 ar   
    28   13   15 1    
    29   14   83 1    
    30   15   16 1    
    31   15   84 1    
    32   15   85 1    
    33   16   17 1    
    34   17   18 1    
    35   17   86 1    
    36   17   87 1    
    37   18   19 1    
    38   18   37 1    
    39   18   88 1    
    40   19   20 am   BACKBONE|DICT|INTERRES
    41   19   89 1    
    42   20   21 2    
    43   20   22 1    
    44   22   23 1    
    45   22   24 1    
    46   22   90 1    
    47   23   91 1    
    48   23   92 1    
    49   23   93 1    
    50   24   25 am   BACKBONE|DICT|INTERRES
    51   24   94 1    
    52   25   26 2    
    53   25   27 1    
    54   27   28 1    
    55   27   29 1    
    56   27   95 1    
    57   28   96 1    
    58   28   97 1    
    59   28   98 1    
    60   29   30 am   BACKBONE|DICT|INTERRES
    61   29   99 1    
    62   30   31 2    
    63   30   32 1    
    64   32   33 1    
    65   32   34 1    
    66   32  100 1    
    67   33  101 1    
    68   33  102 1    
    69   33  103 1    
    70   34   35 am   BACKBONE|DICT|INTERRES
    71   34  104 1    
    72   35   36 2    
    73   37   38 2    
    74   37   39 am   BACKBONE|DICT|INTERRES
    75   39   40 1    
    76   39  105 1    
    77   40   41 1    
    78   40   42 1    
    79   40  106 1    
    80   41  107 1    
    81   41  108 1    
    82   41  109 1    
    83   42   43 2    
    84   42   44 am   BACKBONE|DICT|INTERRES
    85   44   45 1    
    86   44  110 1    
    87   45   46 1    
    88   45   47 1    
    89   45  111 1    
    90   46  112 1    
    91   46  113 1    
    92   46  114 1    
    93   47   48 2    
    94   47   49 am   BACKBONE|DICT|INTERRES
    95   49   50 1    
    96   49  115 1    
    97   50   51 1    
    98   50   52 1    
    99   50  116 1    
   100   51  117 1    
   101   51  118 1    
   102   51  119 1    
   103   52   53 2    
   104   52   54 am   BACKBONE|DICT|INTERRES
   105   54   55 1    
   106   54  120 1    
   107   55   56 1    
   108   55   57 1    
   109   55  121 1    
   110   56  122 1    
   111   56  123 1    
   112   56  124 1    
   113   57   58 2    
   114   57   59 am   BACKBONE|DICT|INTERRES
   115   59   60 1    
   116   59  125 1    
   117   60   61 1    
   118   60   62 1    
   119   60  126 1    
   120   61  127 1    
   121   61  128 1    
   122   61  129 1    
   123   62   63 2    
   124   62   64 am   BACKBONE|DICT|INTERRES
   125   64   65 1    
   126   64  130 1    
   127   65   66 1    
   128   65   69 1    
   129   65  131 1    
   130   66   67 am   BACKBONE|DICT|INTERRES
   131   66   68 2    
   132   67  132 1    
   133   67  133 1    
   134   69   70 1    
   135   69  134 1    
   136   69  135 1    
   137   70   71 1    
   138   71  136 1    
   139   71  137 1    
@<TRIPOS>SUBSTRUCTURE
     1 UNK         1 GROUP             0       ****    0 ROOT    
