@<TRIPOS>MOLECULE
3R137
137   139    1
SMALL
USER_CHARGES


@<TRIPOS>ATOM
      1 CA         27.1541   -5.2877    2.1935 C.3       0 UNK        -0.2020 
      2 C          27.2150   -4.2711    1.0638 C.2       0 UNK         0.4855 
      3 O          27.0262   -4.6367   -0.0970 O.2       0 UNK        -0.5197 
      4 N          27.4677   -2.9961    1.3947 N.am      1 UNK        -0.4892 
      5 CA         27.5718   -1.8347    0.4950 C.3       1 UNK         0.0835 
      6 C6         28.6124   -2.0292   -0.6404 C.3       12 UNK        -0.0855 
      7 S7         29.4755   -0.4908   -1.1033 S.3       12 UNK        -0.2931 
      8 C8         31.0097   -1.1555   -1.8329 C.3       12 UNK         0.0378 
      9 C9         30.7711   -1.7284   -3.2237 C.ar      12 UNK        -0.0802 
     10 C10        31.0948   -0.9798   -4.3594 C.ar      12 UNK        -0.0944 
     11 C11        30.8589   -1.4949   -5.6373 C.ar      12 UNK        -0.0787 
     12 C12        30.2878   -2.7641   -5.7726 C.ar      12 UNK        -0.0862 
     13 C13        29.9564   -3.5230   -4.6467 C.ar      12 UNK        -0.0733 
     14 C14        30.2238   -3.0065   -3.3766 C.ar      12 UNK        -0.0832 
     15 C15        29.3302   -4.9074   -4.7836 C.3       12 UNK         0.0240 
     16 S16        27.9631   -4.9881   -5.9903 S.3       12 UNK        -0.2522 
     17 C17        26.7115   -3.8726   -5.2674 C.3       12 UNK        -0.0967 
     18 CA         26.1567   -2.8799   -6.3243 C.3       5 UNK         0.0660 
     19 N          24.7726   -2.4950   -6.0491 N.am      5 UNK        -0.4015 
     20 C          23.8613   -2.2251   -6.9955 C.2       4 UNK         0.4946 
     21 O          24.0585   -2.3728   -8.2023 O.2       4 UNK        -0.5353 
     22 CA         22.4924   -1.6941   -6.5307 C.3       4 UNK         0.0277 
     23 CB         21.4855   -2.8485   -6.3993 C.3       4 UNK        -0.1981 
     24 N          22.5409   -0.9501   -5.2699 N.am      4 UNK        -0.4209 
     25 C          23.1998    0.2026   -5.0853 C.2       3 UNK         0.4942 
     26 O          23.8297    0.7838   -5.9668 O.2       3 UNK        -0.5208 
     27 CA         23.2016    0.7740   -3.6586 C.3       3 UNK         0.0250 
     28 CB         21.9591    1.6493   -3.4296 C.3       3 UNK        -0.1990 
     29 N          23.2878   -0.2430   -2.6038 N.am      3 UNK        -0.4232 
     30 C          24.2457   -1.1747   -2.4922 C.2       2 UNK         0.4993 
     31 O          25.1416   -1.3550   -3.3232 O.2       2 UNK        -0.5286 
     32 CA         24.1505   -2.1030   -1.2733 C.3       2 UNK         0.0209 
     33 CB         23.5622   -3.4620   -1.6858 C.3       2 UNK        -0.1931 
     34 N          25.4586   -2.3175   -0.6580 N.am      2 UNK        -0.4546 
     35 C          26.2004   -1.3823   -0.0506 C.2       1 UNK         0.5154 
     36 O          25.8273   -0.2206    0.1218 O.2       1 UNK        -0.5181 
     37 C          27.0220   -1.6148   -6.4593 C.2       5 UNK         0.5014 
     38 O          27.7250   -1.4639   -7.4604 O.2       5 UNK        -0.5248 
     39 N          26.9160   -0.7095   -5.4716 N.am      6 UNK        -0.4434 
     40 CA         27.6848    0.5355   -5.3656 C.3       6 UNK         0.0363 
     41 CB         27.2976    1.2711   -4.0754 C.3       6 UNK        -0.1936 
     42 C          27.5641    1.4699   -6.5815 C.2       6 UNK         0.5081 
     43 O          28.5331    2.1573   -6.9046 O.2       6 UNK        -0.5248 
     44 N          26.4106    1.4391   -7.2657 N.am      7 UNK        -0.4718 
     45 CA         26.1188    2.1595   -8.5102 C.3       7 UNK         0.0273 
     46 CB         24.6777    1.8473   -8.9468 C.3       7 UNK        -0.1935 
     47 C          27.0936    1.8965   -9.6756 C.2       7 UNK         0.5018 
     48 O          27.1553    2.7253  -10.5849 O.2       7 UNK        -0.5186 
     49 N          27.8491    0.7859   -9.6382 N.am      8 UNK        -0.4240 
     50 CA         28.9339    0.5074  -10.5865 C.3       8 UNK         0.0235 
     51 CB         29.3631   -0.9636  -10.4743 C.3       8 UNK        -0.2000 
     52 C          30.1382    1.4619  -10.4413 C.2       8 UNK         0.4941 
     53 O          30.8645    1.6451  -11.4189 O.2       8 UNK        -0.5273 
     54 N          30.3064    2.0740   -9.2561 N.am      9 UNK        -0.4262 
     55 CA         31.1921    3.1917   -8.8892 C.3       9 UNK         0.0264 
     56 CB         30.7644    4.4750   -9.6260 C.3       9 UNK        -0.1955 
     57 C          32.7115    2.9754   -9.0316 C.2       9 UNK         0.5031 
     58 O          33.4569    3.3817   -8.1402 O.2       9 UNK        -0.5390 
     59 N          33.1554    2.3656  -10.1346 N.am      10 UNK        -0.4204 
     60 CA         34.5607    2.1765  -10.5162 C.3       10 UNK         0.0237 
     61 CB         34.6234    1.9752  -12.0410 C.3       10 UNK        -0.1985 
     62 C          35.2785    1.0275   -9.7777 C.2       10 UNK         0.4970 
     63 O          36.4259    0.7271  -10.1114 O.2       10 UNK        -0.4914 
     64 N          34.5913    0.3868   -8.8269 N.am      11 UNK        -0.4285 
     65 CA         35.0402   -0.7720   -8.0440 C.3       11 UNK         0.1007 
     66 C          36.3406   -0.5140   -7.2339 C.2       11 UNK         0.5703 
     67 N          37.2096   -1.5097   -7.1211 N.am      11 UNK        -0.7361 
     68 O          36.5452    0.5605   -6.6717 O.2       11 UNK        -0.4986 
     69 C69        33.9129   -1.2834   -7.1093 C.3       12 UNK        -0.0947 
     70 S70        32.3306   -1.5281   -7.9867 S.3       12 UNK        -0.2240 
     71 C71        31.1735   -0.6676   -6.8750 C.3       12 UNK         0.0194 
     72 H72        27.8990   -6.0672    2.0358 H         1 UNK         0.0906 
     73 H73        26.1711   -5.7570    2.2223 H         1 UNK         0.0906 
     74 H74        27.3413   -4.8317    3.1654 H         1 UNK         0.0906 
     75 H75        27.5811   -2.7715    2.3745 H         1 UNK         0.3140 
     76 H76        27.9257   -1.0263    1.1378 H         1 UNK         0.1085 
     77 H77        28.1546   -2.4678   -1.5292 H         1 UNK         0.0836 
     78 H78        29.3725   -2.7405   -0.3139 H         1 UNK         0.0836 
     79 H79        31.7466   -0.3523   -1.8809 H         1 UNK         0.0731 
     80 H80        31.4386   -1.9166   -1.1793 H         1 UNK         0.0731 
     81 H81        31.5174    0.0094   -4.2478 H         1 UNK         0.1312 
     82 H82        30.0881   -3.1535   -6.7616 H         1 UNK         0.1406 
     83 H83        29.9916   -3.5980   -2.5025 H         1 UNK         0.1631 
     84 H84        28.9585   -5.2616   -3.8207 H         1 UNK         0.0717 
     85 H85        30.1068   -5.6088   -5.0909 H         1 UNK         0.0717 
     86 H86        25.9081   -4.5102   -4.8950 H         1 UNK         0.0934 
     87 H87        27.1055   -3.3576   -4.3883 H         1 UNK         0.0934 
     88 H88        26.1742   -3.3835   -7.2937 H         1 UNK         0.0739 
     89 H89        24.5540   -2.2820   -5.0829 H         1 UNK         0.3093 
     90 H90        22.1318   -1.0105   -7.3025 H         1 UNK         0.0818 
     91 H91        21.4081   -3.4064   -7.3338 H         1 UNK         0.0819 
     92 H92        21.7787   -3.5552   -5.6218 H         1 UNK         0.0819 
     93 H93        20.4872   -2.4805   -6.1617 H         1 UNK         0.0819 
     94 H94        22.0519   -1.3511   -4.4829 H         1 UNK         0.3041 
     95 H95        24.0808    1.4114   -3.5627 H         1 UNK         0.0784 
     96 H96        21.8833    2.4256   -4.1926 H         1 UNK         0.0793 
     97 H97        21.0386    1.0653   -3.4666 H         1 UNK         0.0793 
     98 H98        21.9999    2.1526   -2.4634 H         1 UNK         0.0793 
     99 H99        22.5855   -0.1874   -1.8798 H         1 UNK         0.3024 
    100 H100       23.4996   -1.6479   -0.5235 H         1 UNK         0.1171 
    101 H101       24.1907   -3.9664   -2.4215 H         1 UNK         0.0786 
    102 H102       23.4564   -4.1251   -0.8269 H         1 UNK         0.0786 
    103 H103       22.5716   -3.3444   -2.1272 H         1 UNK         0.0786 
    104 H104       25.8608   -3.2484   -0.7269 H         1 UNK         0.2977 
    105 H105       26.2969   -0.9177   -4.6899 H         1 UNK         0.3127 
    106 H106       28.7331    0.2519   -5.2840 H         1 UNK         0.0770 
    107 H107       27.9401    2.1377   -3.9151 H         1 UNK         0.0814 
    108 H108       26.2705    1.6302   -4.1144 H         1 UNK         0.0814 
    109 H109       27.3981    0.6263   -3.2017 H         1 UNK         0.0814 
    110 H110       25.6454    0.8949   -6.8784 H         1 UNK         0.2983 
    111 H111       26.1845    3.2258   -8.2848 H         1 UNK         0.0947 
    112 H112       24.5209    0.7758   -9.0791 H         1 UNK         0.0806 
    113 H113       24.4358    2.3340   -9.8928 H         1 UNK         0.0806 
    114 H114       23.9557    2.2043   -8.2126 H         1 UNK         0.0806 
    115 H115       27.7311    0.1364   -8.8663 H         1 UNK         0.3000 
    116 H116       28.5385    0.6573  -11.5935 H         1 UNK         0.0850 
    117 H117       30.1887   -1.1852  -11.1521 H         1 UNK         0.0810 
    118 H118       28.5428   -1.6331  -10.7333 H         1 UNK         0.0810 
    119 H119       29.6896   -1.2199   -9.4685 H         1 UNK         0.0810 
    120 H120       29.6385    1.8430   -8.5251 H         1 UNK         0.3040 
    121 H121       31.0092    3.3557   -7.8258 H         1 UNK         0.0766 
    122 H122       30.8917    4.3852  -10.7054 H         1 UNK         0.0812 
    123 H123       31.3559    5.3311   -9.2984 H         1 UNK         0.0812 
    124 H124       29.7178    4.7110   -9.4318 H         1 UNK         0.0812 
    125 H125       32.4443    2.0505  -10.7966 H         1 UNK         0.3205 
    126 H126       35.1045    3.0919  -10.2740 H         1 UNK         0.0754 
    127 H127       34.1698    2.8135  -12.5703 H         1 UNK         0.0769 
    128 H128       34.1043    1.0658  -12.3470 H         1 UNK         0.0769 
    129 H129       35.6542    1.8972  -12.3893 H         1 UNK         0.0769 
    130 H130       33.6613    0.7142   -8.6186 H         1 UNK         0.2981 
    131 H131       35.2537   -1.5595   -8.7693 H         1 UNK         0.0541 
    132 H132       38.0515   -1.3662   -6.5856 H         1 UNK         0.3459 
    133 H133       37.0447   -2.3994   -7.5657 H         1 UNK         0.3459 
    134 H134       33.7631   -0.5877   -6.2815 H         1 UNK         0.0612 
    135 H135       34.1954   -2.2357   -6.6571 H         1 UNK         0.0612 
    136 H136       31.5781    0.3105   -6.6099 H         1 UNK         0.0624 
    137 H137       30.2427   -0.4715   -7.4050 H         1 UNK         0.0624 
@<TRIPOS>BOND
     1    1    2 1    
     2    1   72 1    
     3    1   73 1    
     4    1   74 1    
     5    2    3 2    
     6    2    4 am   BACKBONE|DICT|INTERRES
     7    4    5 1    
     8    4   75 1    
     9    5    6 1    
    10    5   35 1    
    11    5   76 1    
    12    6    7 1    
    13    6   77 1    
    14    6   78 1    
    15    7    8 1    
    16    8    9 1    
    17    8   79 1    
    18    8   80 1    
    19    9   10 ar   
    20    9   14 ar   
    21   10   11 ar   
    22   10   81 1    
    23   11   12 ar   
    24   11   71 1    
    25   12   13 ar   
    26   12   82 1    
    27   13   14 ar   
    28   13   15 1    
    29   14   83 1    
    30   15   16 1    
    31   15   84 1    
    32   15   85 1    
    33   16   17 1    
    34   17   18 1    
    35   17   86 1    
    36   17   87 1    
    37   18   19 1    
    38   18   37 1    
    39   18   88 1    
    40   19   20 am   BACKBONE|DICT|INTERRES
    41   19   89 1    
    42   20   21 2    
    43   20   22 1    
    44   22   23 1    
    45   22   24 1    
    46   22   90 1    
    47   23   91 1    
    48   23   92 1    
    49   23   93 1    
    50   24   25 am   BACKBONE|DICT|INTERRES
    51   24   94 1    
    52   25   26 2    
    53   25   27 1    
    54   27   28 1    
    55   27   29 1    
    56   27   95 1    
    57   28   96 1    
    58   28   97 1    
    59   28   98 1    
    60   29   30 am   BACKBONE|DICT|INTERRES
    61   29   99 1    
    62   30   31 2    
    63   30   32 1    
    64   32   33 1    
    65   32   34 1    
    66   32  100 1    
    67   33  101 1    
    68   33  102 1    
    69   33  103 1    
    70   34   35 am   BACKBONE|DICT|INTERRES
    71   34  104 1    
    72   35   36 2    
    73   37   38 2    
    74   37   39 am   BACKBONE|DICT|INTERRES
    75   39   40 1    
    76   39  105 1    
    77   40   41 1    
    78   40   42 1    
    79   40  106 1    
    80   41  107 1    
    81   41  108 1    
    82   41  109 1    
    83   42   43 2    
    84   42   44 am   BACKBONE|DICT|INTERRES
    85   44   45 1    
    86   44  110 1    
    87   45   46 1    
    88   45   47 1    
    89   45  111 1    
    90   46  112 1    
    91   46  113 1    
    92   46  114 1    
    93   47   48 2    
    94   47   49 am   BACKBONE|DICT|INTERRES
    95   49   50 1    
    96   49  115 1    
    97   50   51 1    
    98   50   52 1    
    99   50  116 1    
   100   51  117 1    
   101   51  118 1    
   102   51  119 1    
   103   52   53 2    
   104   52   54 am   BACKBONE|DICT|INTERRES
   105   54   55 1    
   106   54  120 1    
   107   55   56 1    
   108   55   57 1    
   109   55  121 1    
   110   56  122 1    
   111   56  123 1    
   112   56  124 1    
   113   57   58 2    
   114   57   59 am   BACKBONE|DICT|INTERRES
   115   59   60 1    
   116   59  125 1    
   117   60   61 1    
   118   60   62 1    
   119   60  126 1    
   120   61  127 1    
   121   61  128 1    
   122   61  129 1    
   123   62   63 2    
   124   62   64 am   BACKBONE|DICT|INTERRES
   125   64   65 1    
   126   64  130 1    
   127   65   66 1    
   128   65   69 1    
   129   65  131 1    
   130   66   67 am   BACKBONE|DICT|INTERRES
   131   66   68 2    
   132   67  132 1    
   133   67  133 1    
   134   69   70 1    
   135   69  134 1    
   136   69  135 1    
   137   70   71 1    
   138   71  136 1    
   139   71  137 1    
@<TRIPOS>SUBSTRUCTURE
     1 UNK         1 GROUP             0       ****    0 ROOT    
