@<TRIPOS>MOLECULE
3R137
137   139    1
SMALL
USER_CHARGES


@<TRIPOS>ATOM
      1 CA         28.1435   -5.2945    1.6700 C.3       0 UNK        -0.2020 
      2 C          28.0724   -4.2380    0.5783 C.2       0 UNK         0.4855 
      3 O          27.7997   -4.5743   -0.5737 O.2       0 UNK        -0.5197 
      4 N          28.3175   -2.9696    0.9367 N.am      1 UNK        -0.4892 
      5 CA         28.3213   -1.7603    0.0943 C.3       1 UNK         0.0835 
      6 C6         29.3421   -1.7811   -1.0742 C.3       12 UNK        -0.0855 
      7 S7         31.0690   -2.0538   -0.5392 S.3       12 UNK        -0.2931 
      8 C8         31.4101   -3.7559   -1.1045 C.3       12 UNK         0.0378 
      9 C9         31.2925   -3.8970   -2.6158 C.ar      12 UNK        -0.0802 
     10 C10        32.3144   -3.4424   -3.4520 C.ar      12 UNK        -0.0944 
     11 C11        32.1882   -3.5280   -4.8437 C.ar      12 UNK        -0.0787 
     12 C12        31.0293   -4.0881   -5.3954 C.ar      12 UNK        -0.0862 
     13 C13        30.0102   -4.5666   -4.5650 C.ar      12 UNK        -0.0733 
     14 C14        30.1546   -4.4778   -3.1797 C.ar      12 UNK        -0.0832 
     15 C15        28.7478   -5.1881   -5.1412 C.3       12 UNK         0.0240 
     16 S16        27.4269   -3.9506   -5.3340 S.3       12 UNK        -0.2522 
     17 C17        27.5973   -3.5485   -7.1032 C.3       12 UNK        -0.0967 
     18 CA         27.0618   -2.1554   -7.5081 C.3       5 UNK         0.0660 
     19 N          25.6867   -1.9001   -7.0699 N.am      5 UNK        -0.4015 
     20 C          24.8775   -1.0074   -7.6573 C.2       4 UNK         0.4946 
     21 O          25.2117   -0.3066   -8.6125 O.2       4 UNK        -0.5353 
     22 CA         23.4696   -0.8430   -7.0654 C.3       4 UNK         0.0277 
     23 CB         22.6590   -2.1468   -7.1665 C.3       4 UNK        -0.1981 
     24 N          23.4926   -0.3767   -5.6791 N.am      4 UNK        -0.4209 
     25 C          24.0285    0.7800   -5.2624 C.2       3 UNK         0.4942 
     26 O          24.5603    1.6031   -6.0055 O.2       3 UNK        -0.5208 
     27 CA         23.9763    1.0680   -3.7531 C.3       3 UNK         0.0250 
     28 CB         22.7056    1.8602   -3.4056 C.3       3 UNK        -0.1990 
     29 N          24.0571   -0.1203   -2.8972 N.am      3 UNK        -0.4232 
     30 C          25.0560   -1.0141   -2.8970 C.2       2 UNK         0.4993 
     31 O          25.9859   -1.0176   -3.7083 O.2       2 UNK        -0.5286 
     32 CA         24.9825   -2.1064   -1.8181 C.3       2 UNK         0.0209 
     33 CB         24.5308   -3.4412   -2.4319 C.3       2 UNK        -0.1931 
     34 N          26.2719   -2.2944   -1.1548 N.am      2 UNK        -0.4546 
     35 C          26.9171   -1.3795   -0.4201 C.2       1 UNK         0.5154 
     36 O          26.4455   -0.2776   -0.1336 O.2       1 UNK        -0.5181 
     37 C          28.0232   -1.0113   -7.1408 C.2       5 UNK         0.5014 
     38 O          28.9371   -0.7412   -7.9223 O.2       5 UNK        -0.5248 
     39 N          27.7801   -0.3136   -6.0187 N.am      6 UNK        -0.4434 
     40 CA         28.5222    0.8936   -5.6416 C.3       6 UNK         0.0363 
     41 CB         28.0809    1.3802   -4.2549 C.3       6 UNK        -0.1936 
     42 C          28.4047    2.0229   -6.6813 C.2       6 UNK         0.5081 
     43 O          29.3868    2.7304   -6.9046 O.2       6 UNK        -0.5248 
     44 N          27.2363    2.1461   -7.3251 N.am      7 UNK        -0.4718 
     45 CA         27.0283    3.0198   -8.4761 C.3       7 UNK         0.0273 
     46 CB         25.5348    3.3593   -8.6134 C.3       7 UNK        -0.1935 
     47 C          27.5756    2.3908   -9.7668 C.2       7 UNK         0.5018 
     48 O          28.4255    3.0002  -10.4158 O.2       7 UNK        -0.5186 
     49 N          27.0815    1.1947  -10.1235 N.am      8 UNK        -0.4240 
     50 CA         27.3155    0.5490  -11.4216 C.3       8 UNK         0.0235 
     51 CB         26.4297   -0.6996  -11.5565 C.3       8 UNK        -0.2000 
     52 C          28.7821    0.2008  -11.7193 C.2       8 UNK         0.4941 
     53 O          29.2130    0.3729  -12.8603 O.2       8 UNK        -0.5273 
     54 N          29.5254   -0.2622  -10.7054 N.am      9 UNK        -0.4262 
     55 CA         30.9576   -0.5581  -10.8129 C.3       9 UNK         0.0264 
     56 CB         31.2781   -1.8126   -9.9790 C.3       9 UNK        -0.1955 
     57 C          31.8332    0.6293  -10.3724 C.2       9 UNK         0.5031 
     58 O          33.0579    0.4989  -10.3952 O.2       9 UNK        -0.5390 
     59 N          31.2081    1.7421   -9.9497 N.am      10 UNK        -0.4204 
     60 CA         31.8180    2.9351   -9.3460 C.3       10 UNK         0.0237 
     61 CB         32.6567    3.7092  -10.3852 C.3       10 UNK        -0.1985 
     62 C          32.5988    2.6269   -8.0501 C.2       10 UNK         0.4970 
     63 O          33.5762    3.3125   -7.7433 O.2       10 UNK        -0.4914 
     64 N          32.1582    1.5923   -7.3222 N.am      11 UNK        -0.4285 
     65 CA         32.7633    1.1181   -6.0721 C.3       11 UNK         0.1007 
     66 C          32.4756    2.0178   -4.8351 C.2       11 UNK         0.5703 
     67 N          31.4880    2.9050   -4.8762 N.am      11 UNK        -0.7361 
     68 O          33.1714    1.9206   -3.8275 O.2       11 UNK        -0.4986 
     69 C69        32.4077   -0.3743   -5.8107 C.3       12 UNK        -0.0947 
     70 S70        33.8719   -1.3527   -5.3485 S.3       12 UNK        -0.2240 
     71 C71        33.3127   -3.0405   -5.7511 C.3       12 UNK         0.0194 
     72 H72        28.8970   -6.0406    1.4190 H         1 UNK         0.0906 
     73 H73        28.3999   -4.8665    2.6389 H         1 UNK         0.0906 
     74 H74        27.1827   -5.7996    1.7652 H         1 UNK         0.0906 
     75 H75        28.5163   -2.7860    1.9108 H         1 UNK         0.3140 
     76 H76        28.6234   -0.9509    0.7615 H         1 UNK         0.1085 
     77 H77        29.0501   -2.5183   -1.8192 H         1 UNK         0.0836 
     78 H78        29.3239   -0.8239   -1.5990 H         1 UNK         0.0836 
     79 H79        32.4182   -4.0335   -0.7933 H         1 UNK         0.0731 
     80 H80        30.7378   -4.4494   -0.5990 H         1 UNK         0.0731 
     81 H81        33.2026   -3.0042   -3.0175 H         1 UNK         0.1312 
     82 H82        30.9230   -4.1591   -6.4691 H         1 UNK         0.1406 
     83 H83        29.3633   -4.8422   -2.5395 H         1 UNK         0.1631 
     84 H84        28.9583   -5.6781   -6.0931 H         1 UNK         0.0717 
     85 H85        28.3892   -5.9743   -4.4749 H         1 UNK         0.0717 
     86 H86        28.6417   -3.6501   -7.4051 H         1 UNK         0.0934 
     87 H87        27.0585   -4.3149   -7.6626 H         1 UNK         0.0934 
     88 H88        27.0399   -2.1637   -8.5995 H         1 UNK         0.0739 
     89 H89        25.3729   -2.4056   -6.2538 H         1 UNK         0.3093 
     90 H90        22.9568   -0.0820   -7.6576 H         1 UNK         0.0818 
     91 H91        21.6214   -1.9896   -6.8712 H         1 UNK         0.0819 
     92 H92        22.6472   -2.5197   -8.1918 H         1 UNK         0.0819 
     93 H93        23.0685   -2.9370   -6.5363 H         1 UNK         0.0819 
     94 H94        23.0827   -0.9836   -4.9849 H         1 UNK         0.3041 
     95 H95        24.8364    1.6947   -3.5130 H         1 UNK         0.0784 
     96 H96        22.6311    2.7640   -4.0126 H         1 UNK         0.0793 
     97 H97        21.8023    1.2746   -3.5817 H         1 UNK         0.0793 
     98 H98        22.7054    2.1747   -2.3617 H         1 UNK         0.0793 
     99 H99        23.3304   -0.2121   -2.2017 H         1 UNK         0.3024 
    100 H100       24.2600   -1.8095   -1.0548 H         1 UNK         0.1171 
    101 H101       24.4361   -4.2157   -1.6705 H         1 UNK         0.0786 
    102 H102       23.5590   -3.3423   -2.9171 H         1 UNK         0.0786 
    103 H103       25.2372   -3.7969   -3.1829 H         1 UNK         0.0786 
    104 H104       26.7389   -3.1879   -1.2879 H         1 UNK         0.2977 
    105 H105       27.0419   -0.6154   -5.3876 H         1 UNK         0.3127 
    106 H106       29.5752    0.6167   -5.5797 H         1 UNK         0.0770 
    107 H107       27.0321    1.6733   -4.2510 H         1 UNK         0.0814 
    108 H108       28.6638    2.2471   -3.9416 H         1 UNK         0.0814 
    109 H109       28.2181    0.6066   -3.4994 H         1 UNK         0.0814 
    110 H110       26.4525    1.5661   -7.0452 H         1 UNK         0.2983 
    111 H111       27.5663    3.9559   -8.3089 H         1 UNK         0.0947 
    112 H112       25.3570    4.0038   -9.4752 H         1 UNK         0.0806 
    113 H113       25.1697    3.8871   -7.7322 H         1 UNK         0.0806 
    114 H114       24.9218    2.4660   -8.7391 H         1 UNK         0.0806 
    115 H115       26.4000    0.7426   -9.5143 H         1 UNK         0.3000 
    116 H116       26.9983    1.2614  -12.1862 H         1 UNK         0.0850 
    117 H117       26.5496   -1.1600  -12.5381 H         1 UNK         0.0810 
    118 H118       25.3742   -0.4518  -11.4427 H         1 UNK         0.0810 
    119 H119       26.6785   -1.4539  -10.8107 H         1 UNK         0.0810 
    120 H120       29.1126   -0.3762   -9.7813 H         1 UNK         0.3040 
    121 H121       31.2146   -0.7788  -11.8510 H         1 UNK         0.0766 
    122 H122       30.6375   -2.6497  -10.2561 H         1 UNK         0.0812 
    123 H123       31.1557   -1.6351   -8.9109 H         1 UNK         0.0812 
    124 H124       32.3099   -2.1301  -10.1346 H         1 UNK         0.0812 
    125 H125       30.1978    1.7734  -10.0238 H         1 UNK         0.3205 
    126 H126       30.9882    3.5783   -9.0490 H         1 UNK         0.0754 
    127 H127       32.9931    4.6656   -9.9833 H         1 UNK         0.0769 
    128 H128       32.0751    3.9233  -11.2819 H         1 UNK         0.0769 
    129 H129       33.5448    3.1522  -10.6855 H         1 UNK         0.0769 
    130 H130       31.3168    1.1227   -7.6212 H         1 UNK         0.2981 
    131 H131       33.8417    1.1881   -6.2286 H         1 UNK         0.0541 
    132 H132       30.8865    2.9713   -5.6913 H         1 UNK         0.3459 
    133 H133       31.3223    3.4944   -4.0768 H         1 UNK         0.3459 
    134 H134       31.6484   -0.4902   -5.0346 H         1 UNK         0.0612 
    135 H135       31.9805   -0.8320   -6.7043 H         1 UNK         0.0612 
    136 H136       34.1595   -3.7204   -5.6505 H         1 UNK         0.0624 
    137 H137       33.0133   -3.0734   -6.8000 H         1 UNK         0.0624 
@<TRIPOS>BOND
     1    1    2 1    
     2    1   72 1    
     3    1   73 1    
     4    1   74 1    
     5    2    3 2    
     6    2    4 am   BACKBONE|DICT|INTERRES
     7    4    5 1    
     8    4   75 1    
     9    5    6 1    
    10    5   35 1    
    11    5   76 1    
    12    6    7 1    
    13    6   77 1    
    14    6   78 1    
    15    7    8 1    
    16    8    9 1    
    17    8   79 1    
    18    8   80 1    
    19    9   10 ar   
    20    9   14 ar   
    21   10   11 ar   
    22   10   81 1    
    23   11   12 ar   
    24   11   71 1    
    25   12   13 ar   
    26   12   82 1    
    27   13   14 ar   
    28   13   15 1    
    29   14   83 1    
    30   15   16 1    
    31   15   84 1    
    32   15   85 1    
    33   16   17 1    
    34   17   18 1    
    35   17   86 1    
    36   17   87 1    
    37   18   19 1    
    38   18   37 1    
    39   18   88 1    
    40   19   20 am   BACKBONE|DICT|INTERRES
    41   19   89 1    
    42   20   21 2    
    43   20   22 1    
    44   22   23 1    
    45   22   24 1    
    46   22   90 1    
    47   23   91 1    
    48   23   92 1    
    49   23   93 1    
    50   24   25 am   BACKBONE|DICT|INTERRES
    51   24   94 1    
    52   25   26 2    
    53   25   27 1    
    54   27   28 1    
    55   27   29 1    
    56   27   95 1    
    57   28   96 1    
    58   28   97 1    
    59   28   98 1    
    60   29   30 am   BACKBONE|DICT|INTERRES
    61   29   99 1    
    62   30   31 2    
    63   30   32 1    
    64   32   33 1    
    65   32   34 1    
    66   32  100 1    
    67   33  101 1    
    68   33  102 1    
    69   33  103 1    
    70   34   35 am   BACKBONE|DICT|INTERRES
    71   34  104 1    
    72   35   36 2    
    73   37   38 2    
    74   37   39 am   BACKBONE|DICT|INTERRES
    75   39   40 1    
    76   39  105 1    
    77   40   41 1    
    78   40   42 1    
    79   40  106 1    
    80   41  107 1    
    81   41  108 1    
    82   41  109 1    
    83   42   43 2    
    84   42   44 am   BACKBONE|DICT|INTERRES
    85   44   45 1    
    86   44  110 1    
    87   45   46 1    
    88   45   47 1    
    89   45  111 1    
    90   46  112 1    
    91   46  113 1    
    92   46  114 1    
    93   47   48 2    
    94   47   49 am   BACKBONE|DICT|INTERRES
    95   49   50 1    
    96   49  115 1    
    97   50   51 1    
    98   50   52 1    
    99   50  116 1    
   100   51  117 1    
   101   51  118 1    
   102   51  119 1    
   103   52   53 2    
   104   52   54 am   BACKBONE|DICT|INTERRES
   105   54   55 1    
   106   54  120 1    
   107   55   56 1    
   108   55   57 1    
   109   55  121 1    
   110   56  122 1    
   111   56  123 1    
   112   56  124 1    
   113   57   58 2    
   114   57   59 am   BACKBONE|DICT|INTERRES
   115   59   60 1    
   116   59  125 1    
   117   60   61 1    
   118   60   62 1    
   119   60  126 1    
   120   61  127 1    
   121   61  128 1    
   122   61  129 1    
   123   62   63 2    
   124   62   64 am   BACKBONE|DICT|INTERRES
   125   64   65 1    
   126   64  130 1    
   127   65   66 1    
   128   65   69 1    
   129   65  131 1    
   130   66   67 am   BACKBONE|DICT|INTERRES
   131   66   68 2    
   132   67  132 1    
   133   67  133 1    
   134   69   70 1    
   135   69  134 1    
   136   69  135 1    
   137   70   71 1    
   138   71  136 1    
   139   71  137 1    
@<TRIPOS>SUBSTRUCTURE
     1 UNK         1 GROUP             0       ****    0 ROOT    
