@<TRIPOS>MOLECULE
3R137
137   139    1
SMALL
USER_CHARGES


@<TRIPOS>ATOM
      1 CA         28.8209   -0.3970    0.9242 C.3       0 UNK        -0.2020 
      2 C          28.3517   -1.0977   -0.3411 C.2       0 UNK         0.4855 
      3 O          27.1887   -0.9550   -0.7191 O.2       0 UNK        -0.5197 
      4 N          29.2515   -1.8373   -1.0068 N.am      1 UNK        -0.4892 
      5 CA         29.0011   -2.6160   -2.2311 C.3       1 UNK         0.0835 
      6 C6         28.1636   -3.8960   -1.9549 C.3       12 UNK        -0.0855 
      7 S7         29.2284   -5.1850   -1.2134 S.3       12 UNK        -0.2931 
      8 C8         29.5356   -6.3412   -2.5981 C.3       12 UNK         0.0378 
      9 C9         29.7477   -5.6379   -3.9338 C.ar      12 UNK        -0.0802 
     10 C10        30.9185   -4.9187   -4.1899 C.ar      12 UNK        -0.0944 
     11 C11        31.0693   -4.2151   -5.3898 C.ar      12 UNK        -0.0787 
     12 C12        30.0455   -4.2454   -6.3427 C.ar      12 UNK        -0.0862 
     13 C13        28.8823   -4.9861   -6.1091 C.ar      12 UNK        -0.0733 
     14 C14        28.7478   -5.6875   -4.9081 C.ar      12 UNK        -0.0832 
     15 C15        27.7794   -5.0690   -7.1558 C.3       12 UNK         0.0240 
     16 S16        26.1690   -4.5159   -6.5053 S.3       12 UNK        -0.2522 
     17 C17        26.1125   -2.7777   -7.0445 C.3       12 UNK        -0.0967 
     18 CA         24.8053   -2.1021   -6.5627 C.3       5 UNK         0.0660 
     19 N          24.8348   -1.8092   -5.1251 N.am      5 UNK        -0.4015 
     20 C          23.7417   -1.6508   -4.3654 C.2       4 UNK         0.4946 
     21 O          22.5900   -1.6985   -4.8006 O.2       4 UNK        -0.5353 
     22 CA         23.9654   -1.4066   -2.8635 C.3       4 UNK         0.0277 
     23 CB         24.3963   -2.7010   -2.1547 C.3       4 UNK        -0.1981 
     24 N          24.9463   -0.3514   -2.6088 N.am      4 UNK        -0.4209 
     25 C          24.7317    0.9518   -2.8404 C.2       3 UNK         0.4942 
     26 O          23.6610    1.4129   -3.2368 O.2       3 UNK        -0.5208 
     27 CA         25.9174    1.9038   -2.6120 C.3       3 UNK         0.0250 
     28 CB         26.0095    2.3313   -1.1381 C.3       3 UNK        -0.1990 
     29 N          27.1886    1.3197   -3.0450 N.am      3 UNK        -0.4232 
     30 C          27.5114    1.1041   -4.3282 C.2       2 UNK         0.4993 
     31 O          26.7920    1.4166   -5.2734 O.2       2 UNK        -0.5286 
     32 CA         28.8423    0.3952   -4.6120 C.3       2 UNK         0.0209 
     33 CB         29.9855    1.4174   -4.6975 C.3       2 UNK        -0.1931 
     34 N          29.1801   -0.6287   -3.6242 N.am      2 UNK        -0.4546 
     35 C          28.4565   -1.7279   -3.3698 C.2       1 UNK         0.5154 
     36 O          27.4002   -1.9994   -3.9440 O.2       1 UNK        -0.5181 
     37 C          24.4502   -0.8758   -7.4274 C.2       5 UNK         0.5014 
     38 O          23.9018   -1.0653   -8.5148 O.2       5 UNK        -0.5248 
     39 N          24.7614    0.3421   -6.9584 N.am      6 UNK        -0.4434 
     40 CA         24.5055    1.6573   -7.5642 C.3       6 UNK         0.0363 
     41 CB         22.9988    1.9100   -7.7705 C.3       6 UNK        -0.1936 
     42 C          25.3072    1.9308   -8.8490 C.2       6 UNK         0.5081 
     43 O          26.0058    2.9417   -8.9218 O.2       6 UNK        -0.5248 
     44 N          25.1920    1.0395   -9.8403 N.am      7 UNK        -0.4718 
     45 CA         25.8801    1.1255  -11.1302 C.3       7 UNK         0.0273 
     46 CB         25.1911    0.1930  -12.1388 C.3       7 UNK        -0.1935 
     47 C          27.3770    0.7960  -11.0245 C.2       7 UNK         0.5018 
     48 O          28.1883    1.4246  -11.7060 O.2       7 UNK        -0.5186 
     49 N          27.7255   -0.1656  -10.1585 N.am      8 UNK        -0.4240 
     50 CA         29.0980   -0.6071   -9.8982 C.3       8 UNK         0.0235 
     51 CB         29.0773   -2.0663   -9.4128 C.3       8 UNK        -0.2000 
     52 C          29.8052    0.3343   -8.9066 C.2       8 UNK         0.4941 
     53 O          30.2206   -0.0933   -7.8299 O.2       8 UNK        -0.5273 
     54 N          29.9226    1.6109   -9.2911 N.am      9 UNK        -0.4262 
     55 CA         30.4839    2.6970   -8.4822 C.3       9 UNK         0.0264 
     56 CB         30.1641    4.0369   -9.1647 C.3       9 UNK        -0.1955 
     57 C          31.9948    2.5816   -8.2011 C.2       9 UNK         0.5031 
     58 O          32.4908    3.2822   -7.3180 O.2       9 UNK        -0.5390 
     59 N          32.6989    1.7211   -8.9511 N.am      10 UNK        -0.4204 
     60 CA         34.1523    1.5275   -8.9238 C.3       10 UNK         0.0237 
     61 CB         34.5356    0.4470   -9.9483 C.3       10 UNK        -0.1985 
     62 C          34.7472    1.1904   -7.5445 C.2       10 UNK         0.4970 
     63 O          35.8679    1.6195   -7.2659 O.2       10 UNK        -0.4914 
     64 N          34.0025    0.4485   -6.7137 N.am      11 UNK        -0.4285 
     65 CA         34.3816    0.1345   -5.3265 C.3       11 UNK         0.1007 
     66 C          33.9254    1.1903   -4.2757 C.2       11 UNK         0.5703 
     67 N          33.3224    2.3093   -4.6616 N.am      11 UNK        -0.7361 
     68 O          34.1488    1.0054   -3.0816 O.2       11 UNK        -0.4986 
     69 C69        34.0308   -1.3263   -4.9377 C.3       12 UNK        -0.0947 
     70 S70        32.2560   -1.7464   -4.9954 S.3       12 UNK        -0.2240 
     71 C71        32.3480   -3.4376   -5.6575 C.3       12 UNK         0.0194 
     72 H72        28.2350   -0.7373    1.7775 H         1 UNK         0.0906 
     73 H73        29.8722   -0.5921    1.1345 H         1 UNK         0.0906 
     74 H74        28.6873    0.6801    0.8277 H         1 UNK         0.0906 
     75 H75        30.1901   -1.9115   -0.6386 H         1 UNK         0.3140 
     76 H76        29.9813   -2.9274   -2.5928 H         1 UNK         0.1085 
     77 H77        27.6920   -4.2871   -2.8560 H         1 UNK         0.0836 
     78 H78        27.3404   -3.6825   -1.2721 H         1 UNK         0.0836 
     79 H79        28.6959   -7.0352   -2.6619 H         1 UNK         0.0731 
     80 H80        30.4114   -6.9484   -2.3649 H         1 UNK         0.0731 
     81 H81        31.7001   -4.8849   -3.4430 H         1 UNK         0.1312 
     82 H82        30.1649   -3.7022   -7.2687 H         1 UNK         0.1406 
     83 H83        27.8438   -6.2522   -4.7230 H         1 UNK         0.1631 
     84 H84        27.6838   -6.1087   -7.4715 H         1 UNK         0.0717 
     85 H85        28.0360   -4.5042   -8.0523 H         1 UNK         0.0717 
     86 H86        26.9910   -2.2472   -6.6718 H         1 UNK         0.0934 
     87 H87        26.1786   -2.7760   -8.1345 H         1 UNK         0.0934 
     88 H88        23.9900   -2.8099   -6.7317 H         1 UNK         0.0739 
     89 H89        25.7518   -1.8124   -4.6782 H         1 UNK         0.3093 
     90 H90        23.0135   -1.0898   -2.4315 H         1 UNK         0.0818 
     91 H91        23.6419   -3.4795   -2.2741 H         1 UNK         0.0819 
     92 H92        25.3310   -3.0908   -2.5573 H         1 UNK         0.0819 
     93 H93        24.5344   -2.5417   -1.0851 H         1 UNK         0.0819 
     94 H94        25.8439   -0.6380   -2.2288 H         1 UNK         0.3041 
     95 H95        25.7396    2.8003   -3.2105 H         1 UNK         0.0784 
     96 H96        25.0858    2.8146   -0.8171 H         1 UNK         0.0793 
     97 H97        26.1767    1.4821   -0.4755 H         1 UNK         0.0793 
     98 H98        26.8186    3.0447   -0.9812 H         1 UNK         0.0793 
     99 H99        27.8134    0.9888   -2.3245 H         1 UNK         0.3024 
    100 H100       28.7443   -0.0968   -5.5825 H         1 UNK         0.1171 
    101 H101       30.8655    0.9766   -5.1649 H         1 UNK         0.0786 
    102 H102       29.7010    2.2795   -5.3002 H         1 UNK         0.0786 
    103 H103       30.2738    1.7934   -3.7155 H         1 UNK         0.0786 
    104 H104       30.0315   -0.4864   -3.1006 H         1 UNK         0.2977 
    105 H105       25.3047    0.4002   -6.1018 H         1 UNK         0.3127 
    106 H106       24.8488    2.3852   -6.8275 H         1 UNK         0.0770 
    107 H107       22.5620    1.2315   -8.5035 H         1 UNK         0.0814 
    108 H108       22.8220    2.9258   -8.1262 H         1 UNK         0.0814 
    109 H109       22.4488    1.7930   -6.8366 H         1 UNK         0.0814 
    110 H110       24.6055    0.2259   -9.6657 H         1 UNK         0.2983 
    111 H111       25.7939    2.1506  -11.4980 H         1 UNK         0.0947 
    112 H112       25.2209   -0.8482  -11.8148 H         1 UNK         0.0806 
    113 H113       25.6764    0.2460  -13.1145 H         1 UNK         0.0806 
    114 H114       24.1462    0.4688  -12.2828 H         1 UNK         0.0806 
    115 H115       26.9950   -0.5936   -9.6103 H         1 UNK         0.3000 
    116 H116       29.6621   -0.5806  -10.8334 H         1 UNK         0.0850 
    117 H117       30.0926   -2.4533   -9.3192 H         1 UNK         0.0810 
    118 H118       28.5469   -2.7148  -10.1103 H         1 UNK         0.0810 
    119 H119       28.6037   -2.1557   -8.4363 H         1 UNK         0.0810 
    120 H120       29.5246    1.8643  -10.1900 H         1 UNK         0.3040 
    121 H121       29.9755    2.6820   -7.5181 H         1 UNK         0.0766 
    122 H122       29.0887    4.1731   -9.2846 H         1 UNK         0.0812 
    123 H123       30.6248    4.1078  -10.1508 H         1 UNK         0.0812 
    124 H124       30.5305    4.8762   -8.5717 H         1 UNK         0.0812 
    125 H125       32.1886    1.1897   -9.6405 H         1 UNK         0.3205 
    126 H126       34.6016    2.4706   -9.2414 H         1 UNK         0.0754 
    127 H127       35.6158    0.2944   -9.9706 H         1 UNK         0.0769 
    128 H128       34.2311    0.7280  -10.9567 H         1 UNK         0.0769 
    129 H129       34.0758   -0.5138   -9.7126 H         1 UNK         0.0769 
    130 H130       33.0799    0.1533   -7.0012 H         1 UNK         0.2981 
    131 H131       35.4705    0.1792   -5.2675 H         1 UNK         0.0541 
    132 H132       33.0536    2.9813   -3.9620 H         1 UNK         0.3459 
    133 H133       33.1419    2.5085   -5.6403 H         1 UNK         0.3459 
    134 H134       34.5723   -1.9987   -5.6048 H         1 UNK         0.0612 
    135 H135       34.3999   -1.5555   -3.9366 H         1 UNK         0.0612 
    136 H136       32.5529   -3.3927   -6.7282 H         1 UNK         0.0624 
    137 H137       33.1899   -3.9622   -5.2030 H         1 UNK         0.0624 
@<TRIPOS>BOND
     1    1    2 1    
     2    1   72 1    
     3    1   73 1    
     4    1   74 1    
     5    2    3 2    
     6    2    4 am   BACKBONE|DICT|INTERRES
     7    4    5 1    
     8    4   75 1    
     9    5    6 1    
    10    5   35 1    
    11    5   76 1    
    12    6    7 1    
    13    6   77 1    
    14    6   78 1    
    15    7    8 1    
    16    8    9 1    
    17    8   79 1    
    18    8   80 1    
    19    9   10 ar   
    20    9   14 ar   
    21   10   11 ar   
    22   10   81 1    
    23   11   12 ar   
    24   11   71 1    
    25   12   13 ar   
    26   12   82 1    
    27   13   14 ar   
    28   13   15 1    
    29   14   83 1    
    30   15   16 1    
    31   15   84 1    
    32   15   85 1    
    33   16   17 1    
    34   17   18 1    
    35   17   86 1    
    36   17   87 1    
    37   18   19 1    
    38   18   37 1    
    39   18   88 1    
    40   19   20 am   BACKBONE|DICT|INTERRES
    41   19   89 1    
    42   20   21 2    
    43   20   22 1    
    44   22   23 1    
    45   22   24 1    
    46   22   90 1    
    47   23   91 1    
    48   23   92 1    
    49   23   93 1    
    50   24   25 am   BACKBONE|DICT|INTERRES
    51   24   94 1    
    52   25   26 2    
    53   25   27 1    
    54   27   28 1    
    55   27   29 1    
    56   27   95 1    
    57   28   96 1    
    58   28   97 1    
    59   28   98 1    
    60   29   30 am   BACKBONE|DICT|INTERRES
    61   29   99 1    
    62   30   31 2    
    63   30   32 1    
    64   32   33 1    
    65   32   34 1    
    66   32  100 1    
    67   33  101 1    
    68   33  102 1    
    69   33  103 1    
    70   34   35 am   BACKBONE|DICT|INTERRES
    71   34  104 1    
    72   35   36 2    
    73   37   38 2    
    74   37   39 am   BACKBONE|DICT|INTERRES
    75   39   40 1    
    76   39  105 1    
    77   40   41 1    
    78   40   42 1    
    79   40  106 1    
    80   41  107 1    
    81   41  108 1    
    82   41  109 1    
    83   42   43 2    
    84   42   44 am   BACKBONE|DICT|INTERRES
    85   44   45 1    
    86   44  110 1    
    87   45   46 1    
    88   45   47 1    
    89   45  111 1    
    90   46  112 1    
    91   46  113 1    
    92   46  114 1    
    93   47   48 2    
    94   47   49 am   BACKBONE|DICT|INTERRES
    95   49   50 1    
    96   49  115 1    
    97   50   51 1    
    98   50   52 1    
    99   50  116 1    
   100   51  117 1    
   101   51  118 1    
   102   51  119 1    
   103   52   53 2    
   104   52   54 am   BACKBONE|DICT|INTERRES
   105   54   55 1    
   106   54  120 1    
   107   55   56 1    
   108   55   57 1    
   109   55  121 1    
   110   56  122 1    
   111   56  123 1    
   112   56  124 1    
   113   57   58 2    
   114   57   59 am   BACKBONE|DICT|INTERRES
   115   59   60 1    
   116   59  125 1    
   117   60   61 1    
   118   60   62 1    
   119   60  126 1    
   120   61  127 1    
   121   61  128 1    
   122   61  129 1    
   123   62   63 2    
   124   62   64 am   BACKBONE|DICT|INTERRES
   125   64   65 1    
   126   64  130 1    
   127   65   66 1    
   128   65   69 1    
   129   65  131 1    
   130   66   67 am   BACKBONE|DICT|INTERRES
   131   66   68 2    
   132   67  132 1    
   133   67  133 1    
   134   69   70 1    
   135   69  134 1    
   136   69  135 1    
   137   70   71 1    
   138   71  136 1    
   139   71  137 1    
@<TRIPOS>SUBSTRUCTURE
     1 UNK         1 GROUP             0       ****    0 ROOT    
