@<TRIPOS>MOLECULE
3R137
137   139    1
SMALL
USER_CHARGES


@<TRIPOS>ATOM
      1 CA         26.6517   -6.4618   -2.5931 C.3       0 UNK        -0.2020 
      2 C          26.6678   -5.2523   -1.6708 C.2       0 UNK         0.4855 
      3 O          26.9634   -5.3893   -0.4834 O.2       0 UNK        -0.5197 
      4 N          26.3594   -4.0744   -2.2159 N.am      1 UNK        -0.4892 
      5 CA         26.2866   -2.7882   -1.5242 C.3       1 UNK         0.0835 
      6 C6         27.3918   -1.8308   -2.0560 C.3       12 UNK        -0.0855 
      7 S7         28.6494   -1.4635   -0.7899 S.3       12 UNK        -0.2931 
      8 C8         29.8307   -2.8316   -1.0184 C.3       12 UNK         0.0378 
      9 C9         30.6327   -2.7372   -2.3126 C.ar      12 UNK        -0.0802 
     10 C10        31.6787   -1.8151   -2.4311 C.ar      12 UNK        -0.0944 
     11 C11        32.4859   -1.7921   -3.5750 C.ar      12 UNK        -0.0787 
     12 C12        32.2302   -2.6994   -4.6085 C.ar      12 UNK        -0.0862 
     13 C13        31.1749   -3.6116   -4.5132 C.ar      12 UNK        -0.0733 
     14 C14        30.3790   -3.6250   -3.3630 C.ar      12 UNK        -0.0832 
     15 C15        30.9379   -4.6200   -5.6298 C.3       12 UNK         0.0240 
     16 S16        30.0819   -3.8858   -7.0587 S.3       12 UNK        -0.2522 
     17 C17        28.3727   -3.7603   -6.4354 C.3       12 UNK        -0.0967 
     18 CA         27.5736   -2.5593   -7.0261 C.3       5 UNK         0.0660 
     19 N          26.1173   -2.7428   -7.0136 N.am      5 UNK        -0.4015 
     20 C          25.3843   -3.1182   -5.9582 C.2       4 UNK         0.4946 
     21 O          25.8492   -3.5942   -4.9214 O.2       4 UNK        -0.5353 
     22 CA         23.8815   -2.8302   -6.0361 C.3       4 UNK         0.0277 
     23 CB         23.0376   -3.9903   -5.4789 C.3       4 UNK        -0.1981 
     24 N          23.6688   -1.6262   -5.2352 N.am      4 UNK        -0.4209 
     25 C          23.6247   -0.3877   -5.7476 C.2       3 UNK         0.4942 
     26 O          23.4942   -0.1687   -6.9526 O.2       3 UNK        -0.5208 
     27 CA         23.8192    0.8148   -4.7987 C.3       3 UNK         0.0250 
     28 CB         22.8079    1.9487   -5.0728 C.3       3 UNK        -0.1990 
     29 N          23.8899    0.4809   -3.3689 N.am      3 UNK        -0.4232 
     30 C          22.9024    0.0537   -2.5673 C.2       2 UNK         0.4993 
     31 O          21.7327   -0.0888   -2.9267 O.2       2 UNK        -0.5286 
     32 CA         23.3247   -0.3135   -1.1261 C.3       2 UNK         0.0209 
     33 CB         22.2194   -1.0672   -0.3549 C.3       2 UNK        -0.1931 
     34 N          24.5925   -1.0647   -1.0654 N.am      2 UNK        -0.4546 
     35 C          24.8721   -2.2045   -1.7182 C.2       1 UNK         0.5154 
     36 O          24.0678   -2.7635   -2.4669 O.2       1 UNK        -0.5181 
     37 C          27.9201   -1.1771   -6.4223 C.2       5 UNK         0.5014 
     38 O          27.0944   -0.2611   -6.4862 O.2       5 UNK        -0.5248 
     39 N          29.1425   -1.0264   -5.8974 N.am      6 UNK        -0.4434 
     40 CA         29.7257    0.1973   -5.3413 C.3       6 UNK         0.0363 
     41 CB         29.0982    0.5486   -3.9791 C.3       6 UNK        -0.1936 
     42 C          29.7083    1.3575   -6.3480 C.2       6 UNK         0.5081 
     43 O          30.4384    1.3030   -7.3380 O.2       6 UNK        -0.5248 
     44 N          28.8566    2.3626   -6.1071 N.am      7 UNK        -0.4718 
     45 CA         28.6489    3.5266   -6.9708 C.3       7 UNK         0.0273 
     46 CB         27.7149    4.5201   -6.2617 C.3       7 UNK        -0.1935 
     47 C          28.1012    3.1774   -8.3657 C.2       7 UNK         0.5018 
     48 O          28.3899    3.9062   -9.3146 O.2       7 UNK        -0.5186 
     49 N          27.3526    2.0690   -8.4795 N.am      8 UNK        -0.4240 
     50 CA         26.8557    1.5553   -9.7597 C.3       8 UNK         0.0235 
     51 CB         25.6926    0.5830   -9.5125 C.3       8 UNK        -0.2000 
     52 C          27.9588    0.8813  -10.5938 C.2       8 UNK         0.4941 
     53 O          27.8795    0.9018  -11.8224 O.2       8 UNK        -0.5273 
     54 N          28.9645    0.3065   -9.9195 N.am      9 UNK        -0.4262 
     55 CA         30.1458   -0.2921  -10.5450 C.3       9 UNK         0.0264 
     56 CB         30.6489   -1.4452   -9.6627 C.3       9 UNK        -0.1955 
     57 C          31.2717    0.7309  -10.7726 C.2       9 UNK         0.5031 
     58 O          32.1087    0.5076  -11.6478 O.2       9 UNK        -0.5390 
     59 N          31.2808    1.8056   -9.9684 N.am      10 UNK        -0.4204 
     60 CA         32.3300    2.8186   -9.8233 C.3       10 UNK         0.0237 
     61 CB         32.5410    3.6148  -11.1292 C.3       10 UNK        -0.1985 
     62 C          33.6163    2.1832   -9.2663 C.2       10 UNK         0.4970 
     63 O          34.6786    2.2902   -9.8819 O.2       10 UNK        -0.4914 
     64 N          33.4749    1.4942   -8.1241 N.am      11 UNK        -0.4285 
     65 CA         34.5382    0.7045   -7.4805 C.3       11 UNK         0.1007 
     66 C          35.7684    1.5008   -6.9470 C.2       11 UNK         0.5703 
     67 N          35.7017    2.8206   -6.8153 N.am      11 UNK        -0.7361 
     68 O          36.8047    0.9066   -6.6585 O.2       11 UNK        -0.4986 
     69 C69        33.9545   -0.2779   -6.4288 C.3       12 UNK        -0.0947 
     70 S70        33.4173    0.5104   -4.8679 S.3       12 UNK        -0.2240 
     71 C71        33.6701   -0.8329   -3.6606 C.3       12 UNK         0.0194 
     72 H72        27.6330   -6.9354   -2.6094 H         1 UNK         0.0906 
     73 H73        25.9244   -7.1930   -2.2413 H         1 UNK         0.0906 
     74 H74        26.3903   -6.1878   -3.6157 H         1 UNK         0.0906 
     75 H75        26.0715   -4.0233   -3.1958 H         1 UNK         0.3140 
     76 H76        26.3986   -2.9404   -0.4484 H         1 UNK         0.1085 
     77 H77        26.9882   -0.8701   -2.3794 H         1 UNK         0.0836 
     78 H78        27.8772   -2.2315   -2.9478 H         1 UNK         0.0836 
     79 H79        29.2941   -3.7797   -0.9632 H         1 UNK         0.0731 
     80 H80        30.5231   -2.8329   -0.1754 H         1 UNK         0.0731 
     81 H81        31.8805   -1.1345   -1.6151 H         1 UNK         0.1312 
     82 H82        32.8632   -2.7103   -5.4842 H         1 UNK         0.1406 
     83 H83        29.5801   -4.3483   -3.2702 H         1 UNK         0.1631 
     84 H84        30.3695   -5.4779   -5.2668 H         1 UNK         0.0717 
     85 H85        31.8977   -5.0156   -5.9653 H         1 UNK         0.0717 
     86 H86        27.8771   -4.6960   -6.6992 H         1 UNK         0.0934 
     87 H87        28.3709   -3.7272   -5.3455 H         1 UNK         0.0934 
     88 H88        27.8298   -2.4843   -8.0838 H         1 UNK         0.0739 
     89 H89        25.6309   -2.3147   -7.7881 H         1 UNK         0.3093 
     90 H90        23.5896   -2.6702   -7.0763 H         1 UNK         0.0818 
     91 H91        21.9752   -3.7473   -5.4942 H         1 UNK         0.0819 
     92 H92        23.1749   -4.8904   -6.0790 H         1 UNK         0.0819 
     93 H93        23.3053   -4.2431   -4.4530 H         1 UNK         0.0819 
     94 H94        23.7833   -1.7508   -4.2342 H         1 UNK         0.3041 
     95 H95        24.8076    1.2058   -5.0468 H         1 UNK         0.0784 
     96 H96        22.8938    2.3083   -6.0990 H         1 UNK         0.0793 
     97 H97        21.7782    1.6187   -4.9338 H         1 UNK         0.0793 
     98 H98        22.9801    2.8026   -4.4176 H         1 UNK         0.0793 
     99 H99        24.8120    0.5482   -2.9618 H         1 UNK         0.3024 
    100 H100       23.4944    0.6348   -0.6128 H         1 UNK         0.1171 
    101 H101       21.9629   -2.0118   -0.8358 H         1 UNK         0.0786 
    102 H102       21.3064   -0.4731   -0.2974 H         1 UNK         0.0786 
    103 H103       22.5269   -1.2846    0.6680 H         1 UNK         0.0786 
    104 H104       25.3108   -0.6641   -0.4760 H         1 UNK         0.2977 
    105 H105       29.7632   -1.8262   -5.9302 H         1 UNK         0.3127 
    106 H106       30.7710   -0.0343   -5.1647 H         1 UNK         0.0770 
    107 H107       29.5085    1.4759   -3.5769 H         1 UNK         0.0814 
    108 H108       29.3329   -0.2275   -3.2563 H         1 UNK         0.0814 
    109 H109       28.0140    0.6497   -4.0294 H         1 UNK         0.0814 
    110 H110       28.2763    2.3008   -5.2833 H         1 UNK         0.2983 
    111 H111       29.6188    4.0079   -7.1152 H         1 UNK         0.0947 
    112 H112       27.5603    5.4126   -6.8701 H         1 UNK         0.0806 
    113 H113       28.1326    4.8487   -5.3099 H         1 UNK         0.0806 
    114 H114       26.7338    4.0847   -6.0672 H         1 UNK         0.0806 
    115 H115       27.1702    1.5069   -7.6537 H         1 UNK         0.3000 
    116 H116       26.4715    2.3961  -10.3419 H         1 UNK         0.0850 
    117 H117       24.8822    1.0675   -8.9676 H         1 UNK         0.0810 
    118 H118       26.0057   -0.2892   -8.9400 H         1 UNK         0.0810 
    119 H119       25.2780    0.2227  -10.4549 H         1 UNK         0.0810 
    120 H120       28.9671    0.3689   -8.9109 H         1 UNK         0.3040 
    121 H121       29.8734   -0.7056  -11.5186 H         1 UNK         0.0766 
    122 H122       31.5414   -1.9050  -10.0895 H         1 UNK         0.0812 
    123 H123       29.8963   -2.2282   -9.5763 H         1 UNK         0.0812 
    124 H124       30.9061   -1.1092   -8.6572 H         1 UNK         0.0812 
    125 H125       30.6005    1.8047   -9.2157 H         1 UNK         0.3205 
    126 H126       31.9764    3.5197   -9.0656 H         1 UNK         0.0754 
    127 H127       33.2422    4.4355  -10.9732 H         1 UNK         0.0769 
    128 H128       31.6054    4.0494  -11.4815 H         1 UNK         0.0769 
    129 H129       32.9445    2.9938  -11.9293 H         1 UNK         0.0769 
    130 H130       32.5615    1.4515   -7.6872 H         1 UNK         0.2981 
    131 H131       34.9452    0.0787   -8.2773 H         1 UNK         0.0541 
    132 H132       34.8550    3.3132   -7.0477 H         1 UNK         0.3459 
    133 H133       36.5046    3.3249   -6.4744 H         1 UNK         0.3459 
    134 H134       33.1024   -0.8102   -6.8544 H         1 UNK         0.0612 
    135 H135       34.6990   -1.0423   -6.2010 H         1 UNK         0.0612 
    136 H136       34.5784   -1.3873   -3.8996 H         1 UNK         0.0624 
    137 H137       33.8499   -0.3761   -2.6864 H         1 UNK         0.0624 
@<TRIPOS>BOND
     1    1    2 1    
     2    1   72 1    
     3    1   73 1    
     4    1   74 1    
     5    2    3 2    
     6    2    4 am   BACKBONE|DICT|INTERRES
     7    4    5 1    
     8    4   75 1    
     9    5    6 1    
    10    5   35 1    
    11    5   76 1    
    12    6    7 1    
    13    6   77 1    
    14    6   78 1    
    15    7    8 1    
    16    8    9 1    
    17    8   79 1    
    18    8   80 1    
    19    9   10 ar   
    20    9   14 ar   
    21   10   11 ar   
    22   10   81 1    
    23   11   12 ar   
    24   11   71 1    
    25   12   13 ar   
    26   12   82 1    
    27   13   14 ar   
    28   13   15 1    
    29   14   83 1    
    30   15   16 1    
    31   15   84 1    
    32   15   85 1    
    33   16   17 1    
    34   17   18 1    
    35   17   86 1    
    36   17   87 1    
    37   18   19 1    
    38   18   37 1    
    39   18   88 1    
    40   19   20 am   BACKBONE|DICT|INTERRES
    41   19   89 1    
    42   20   21 2    
    43   20   22 1    
    44   22   23 1    
    45   22   24 1    
    46   22   90 1    
    47   23   91 1    
    48   23   92 1    
    49   23   93 1    
    50   24   25 am   BACKBONE|DICT|INTERRES
    51   24   94 1    
    52   25   26 2    
    53   25   27 1    
    54   27   28 1    
    55   27   29 1    
    56   27   95 1    
    57   28   96 1    
    58   28   97 1    
    59   28   98 1    
    60   29   30 am   BACKBONE|DICT|INTERRES
    61   29   99 1    
    62   30   31 2    
    63   30   32 1    
    64   32   33 1    
    65   32   34 1    
    66   32  100 1    
    67   33  101 1    
    68   33  102 1    
    69   33  103 1    
    70   34   35 am   BACKBONE|DICT|INTERRES
    71   34  104 1    
    72   35   36 2    
    73   37   38 2    
    74   37   39 am   BACKBONE|DICT|INTERRES
    75   39   40 1    
    76   39  105 1    
    77   40   41 1    
    78   40   42 1    
    79   40  106 1    
    80   41  107 1    
    81   41  108 1    
    82   41  109 1    
    83   42   43 2    
    84   42   44 am   BACKBONE|DICT|INTERRES
    85   44   45 1    
    86   44  110 1    
    87   45   46 1    
    88   45   47 1    
    89   45  111 1    
    90   46  112 1    
    91   46  113 1    
    92   46  114 1    
    93   47   48 2    
    94   47   49 am   BACKBONE|DICT|INTERRES
    95   49   50 1    
    96   49  115 1    
    97   50   51 1    
    98   50   52 1    
    99   50  116 1    
   100   51  117 1    
   101   51  118 1    
   102   51  119 1    
   103   52   53 2    
   104   52   54 am   BACKBONE|DICT|INTERRES
   105   54   55 1    
   106   54  120 1    
   107   55   56 1    
   108   55   57 1    
   109   55  121 1    
   110   56  122 1    
   111   56  123 1    
   112   56  124 1    
   113   57   58 2    
   114   57   59 am   BACKBONE|DICT|INTERRES
   115   59   60 1    
   116   59  125 1    
   117   60   61 1    
   118   60   62 1    
   119   60  126 1    
   120   61  127 1    
   121   61  128 1    
   122   61  129 1    
   123   62   63 2    
   124   62   64 am   BACKBONE|DICT|INTERRES
   125   64   65 1    
   126   64  130 1    
   127   65   66 1    
   128   65   69 1    
   129   65  131 1    
   130   66   67 am   BACKBONE|DICT|INTERRES
   131   66   68 2    
   132   67  132 1    
   133   67  133 1    
   134   69   70 1    
   135   69  134 1    
   136   69  135 1    
   137   70   71 1    
   138   71  136 1    
   139   71  137 1    
@<TRIPOS>SUBSTRUCTURE
     1 UNK         1 GROUP             0       ****    0 ROOT    
