@<TRIPOS>MOLECULE
3R137
137   139    1
SMALL
USER_CHARGES


@<TRIPOS>ATOM
      1 CA         30.6040   -3.9985   -1.6442 C.3       0 UNK        -0.2020 
      2 C          29.3230   -3.4331   -1.0493 C.2       0 UNK         0.4855 
      3 O          28.7107   -4.0710   -0.1932 O.2       0 UNK        -0.5197 
      4 N          28.9198   -2.2359   -1.4941 N.am      1 UNK        -0.4892 
      5 CA         27.7549   -1.4877   -0.9986 C.3       1 UNK         0.0835 
      6 C6         27.7314   -0.0331   -1.5375 C.3       12 UNK        -0.0855 
      7 S7         29.2440    0.9119   -1.1341 S.3       12 UNK        -0.2931 
      8 C8         29.8380    1.4544   -2.7713 C.3       12 UNK         0.0378 
      9 C9         30.7347    0.4193   -3.4342 C.ar      12 UNK        -0.0802 
     10 C10        32.1218    0.5899   -3.4425 C.ar      12 UNK        -0.0944 
     11 C11        32.9464   -0.3357   -4.0884 C.ar      12 UNK        -0.0787 
     12 C12        32.3761   -1.4498   -4.7126 C.ar      12 UNK        -0.0862 
     13 C13        30.9905   -1.6372   -4.7025 C.ar      12 UNK        -0.0733 
     14 C14        30.1788   -0.6918   -4.0712 C.ar      12 UNK        -0.0832 
     15 C15        30.3783   -2.8695   -5.3542 C.3       12 UNK         0.0240 
     16 S16        29.3768   -2.4547   -6.8141 S.3       12 UNK        -0.2522 
     17 C17        27.6932   -2.3137   -6.1201 C.3       12 UNK        -0.0967 
     18 CA         26.8970   -1.1249   -6.7201 C.3       5 UNK         0.0660 
     19 N          25.4875   -1.4734   -6.9225 N.am      5 UNK        -0.4015 
     20 C          24.6272   -0.8047   -7.7021 C.2       4 UNK         0.4946 
     21 O          24.9166    0.2240   -8.3164 O.2       4 UNK        -0.5353 
     22 CA         23.2031   -1.3767   -7.7962 C.3       4 UNK         0.0277 
     23 CB         23.1349   -2.4696   -8.8751 C.3       4 UNK        -0.1981 
     24 N          22.7368   -1.9186   -6.5144 N.am      4 UNK        -0.4209 
     25 C          22.2500   -1.1600   -5.5223 C.2       3 UNK         0.4942 
     26 O          22.0805    0.0564   -5.6118 O.2       3 UNK        -0.5208 
     27 CA         21.9148   -1.8687   -4.1953 C.3       3 UNK         0.0250 
     28 CB         20.5518   -2.5746   -4.2899 C.3       3 UNK        -0.1990 
     29 N          22.9270   -2.8166   -3.7018 N.am      3 UNK        -0.4232 
     30 C          24.2314   -2.5500   -3.5422 C.2       2 UNK         0.4993 
     31 O          24.7714   -1.5241   -3.9546 O.2       2 UNK        -0.5286 
     32 CA         25.0888   -3.6135   -2.8311 C.3       2 UNK         0.0209 
     33 CB         25.4409   -4.7615   -3.7912 C.3       2 UNK        -0.1931 
     34 N          26.3315   -3.0328   -2.3065 N.am      2 UNK        -0.4546 
     35 C          26.3955   -2.1698   -1.2806 C.2       1 UNK         0.5154 
     36 O          25.4268   -1.8875   -0.5727 O.2       1 UNK        -0.5181 
     37 C          27.0791    0.1941   -5.9347 C.2       5 UNK         0.5014 
     38 O          28.1027    0.8541   -6.0811 O.2       5 UNK        -0.5248 
     39 N          26.0680    0.5971   -5.1536 N.am      6 UNK        -0.4434 
     40 CA         25.9509    1.9143   -4.5234 C.3       6 UNK         0.0363 
     41 CB         24.6847    1.9429   -3.6538 C.3       6 UNK        -0.1936 
     42 C          25.9507    3.0843   -5.5283 C.2       6 UNK         0.5081 
     43 O          26.3586    4.1858   -5.1585 O.2       6 UNK        -0.5248 
     44 N          25.5150    2.8285   -6.7702 N.am      7 UNK        -0.4718 
     45 CA         25.6133    3.7582   -7.8930 C.3       7 UNK         0.0273 
     46 CB         24.2963    3.7472   -8.6885 C.3       7 UNK        -0.1935 
     47 C          26.8064    3.3885   -8.7871 C.2       7 UNK         0.5018 
     48 O          27.6798    4.2275   -9.0113 O.2       7 UNK        -0.5186 
     49 N          26.8273    2.1449   -9.2838 N.am      8 UNK        -0.4240 
     50 CA         27.8325    1.6313  -10.2150 C.3       8 UNK         0.0235 
     51 CB         27.1234    0.7327  -11.2464 C.3       8 UNK        -0.2000 
     52 C          28.9375    0.8856   -9.4501 C.2       8 UNK         0.4941 
     53 O          29.0066   -0.3414   -9.5283 O.2       8 UNK        -0.5273 
     54 N          29.7549    1.6371   -8.6995 N.am      9 UNK        -0.4262 
     55 CA         30.8048    1.1374   -7.8036 C.3       9 UNK         0.0264 
     56 CB         31.3138    2.2958   -6.9281 C.3       9 UNK        -0.1955 
     57 C          31.9489    0.4230   -8.5435 C.2       9 UNK         0.5031 
     58 O          32.9712    1.0384   -8.8558 O.2       9 UNK        -0.5390 
     59 N          31.7549   -0.8720   -8.8113 N.am      10 UNK        -0.4204 
     60 CA         32.7127   -1.7739   -9.4474 C.3       10 UNK         0.0237 
     61 CB         31.9348   -2.9262  -10.1101 C.3       10 UNK        -0.1985 
     62 C          33.7591   -2.2696   -8.4329 C.2       10 UNK         0.4970 
     63 O          33.7963   -3.4598   -8.1140 O.2       10 UNK        -0.4914 
     64 N          34.5686   -1.3385   -7.9176 N.am      11 UNK        -0.4285 
     65 CA         35.6531   -1.6011   -6.9615 C.3       11 UNK         0.1007 
     66 C          36.8052   -2.4466   -7.5711 C.2       11 UNK         0.5703 
     67 N          37.4733   -3.2590   -6.7632 N.am      11 UNK        -0.7361 
     68 O          37.1246   -2.3427   -8.7546 O.2       11 UNK        -0.4986 
     69 C69        36.2080   -0.2934   -6.3362 C.3       12 UNK        -0.0947 
     70 S70        34.9253    0.7905   -5.6243 S.3       12 UNK        -0.2240 
     71 C71        34.4507   -0.1204   -4.1232 C.3       12 UNK         0.0194 
     72 H72        31.2575   -4.3617   -0.8514 H         1 UNK         0.0906 
     73 H73        30.3755   -4.8334   -2.3060 H         1 UNK         0.0906 
     74 H74        31.1550   -3.2496   -2.2128 H         1 UNK         0.0906 
     75 H75        29.5107   -1.7303   -2.1393 H         1 UNK         0.3140 
     76 H76        27.8499   -1.4387    0.0886 H         1 UNK         0.1085 
     77 H77        27.5579   -0.0258   -2.6140 H         1 UNK         0.0836 
     78 H78        26.8905    0.5134   -1.1050 H         1 UNK         0.0836 
     79 H79        29.0007    1.6923   -3.4262 H         1 UNK         0.0731 
     80 H80        30.3849    2.3897   -2.6428 H         1 UNK         0.0731 
     81 H81        32.5606    1.4542   -2.9628 H         1 UNK         0.1312 
     82 H82        33.0120   -2.1688   -5.2099 H         1 UNK         0.1406 
     83 H83        29.1081   -0.8097   -4.0874 H         1 UNK         0.1631 
     84 H84        29.7786   -3.4187   -4.6276 H         1 UNK         0.0717 
     85 H85        31.1647   -3.5558   -5.6726 H         1 UNK         0.0717 
     86 H86        27.2055   -3.2556   -6.3743 H         1 UNK         0.0934 
     87 H87        27.7037   -2.2827   -5.0305 H         1 UNK         0.0934 
     88 H88        27.2845   -0.9331   -7.7207 H         1 UNK         0.0739 
     89 H89        25.1427   -2.2650   -6.4025 H         1 UNK         0.3093 
     90 H90        22.5405   -0.5632   -8.1009 H         1 UNK         0.0818 
     91 H91        22.1159   -2.8347   -9.0046 H         1 UNK         0.0819 
     92 H92        23.4636   -2.0831   -9.8411 H         1 UNK         0.0819 
     93 H93        23.7693   -3.3233   -8.6333 H         1 UNK         0.0819 
     94 H94        22.8175   -2.9145   -6.3680 H         1 UNK         0.3041 
     95 H95        21.8315   -1.0865   -3.4377 H         1 UNK         0.0784 
     96 H96        19.7792   -1.8885   -4.6405 H         1 UNK         0.0793 
     97 H97        20.5785   -3.4167   -4.9825 H         1 UNK         0.0793 
     98 H98        20.2298   -2.9492   -3.3180 H         1 UNK         0.0793 
     99 H99        22.5748   -3.6998   -3.3607 H         1 UNK         0.3024 
    100 H100       24.5150   -4.0123   -1.9913 H         1 UNK         0.1171 
    101 H101       24.5418   -5.2469   -4.1731 H         1 UNK         0.0786 
    102 H102       26.0295   -5.5296   -3.2888 H         1 UNK         0.0786 
    103 H103       26.0124   -4.4129   -4.6507 H         1 UNK         0.0786 
    104 H104       27.1780   -3.2158   -2.8217 H         1 UNK         0.2977 
    105 H105       25.3266   -0.0715   -4.9527 H         1 UNK         0.3127 
    106 H106       26.8122    2.0495   -3.8698 H         1 UNK         0.0770 
    107 H107       23.7843    1.7956   -4.2513 H         1 UNK         0.0814 
    108 H108       24.5845    2.9000   -3.1402 H         1 UNK         0.0814 
    109 H109       24.7101    1.1651   -2.8900 H         1 UNK         0.0814 
    110 H110       25.2229    1.8842   -6.9940 H         1 UNK         0.2983 
    111 H111       25.7739    4.7762   -7.5308 H         1 UNK         0.0947 
    112 H112       24.3542    4.4170   -9.5475 H         1 UNK         0.0806 
    113 H113       23.4627    4.0836   -8.0718 H         1 UNK         0.0806 
    114 H114       24.0501    2.7536   -9.0648 H         1 UNK         0.0806 
    115 H115       26.1013    1.4891   -9.0009 H         1 UNK         0.3000 
    116 H116       28.3014    2.4540  -10.7593 H         1 UNK         0.0850 
    117 H117       27.8370    0.3164  -11.9586 H         1 UNK         0.0810 
    118 H118       26.3841    1.2939  -11.8179 H         1 UNK         0.0810 
    119 H119       26.6110   -0.1038  -10.7687 H         1 UNK         0.0810 
    120 H120       29.5988    2.6356   -8.6915 H         1 UNK         0.3040 
    121 H121       30.3566    0.4033   -7.1329 H         1 UNK         0.0766 
    122 H122       32.0940    1.9518   -6.2479 H         1 UNK         0.0812 
    123 H123       30.5114    2.7050   -6.3136 H         1 UNK         0.0812 
    124 H124       31.7327    3.1056   -7.5264 H         1 UNK         0.0812 
    125 H125       30.8530   -1.2664   -8.5670 H         1 UNK         0.3205 
    126 H126       33.2446   -1.2330  -10.2330 H         1 UNK         0.0754 
    127 H127       32.6116   -3.6154  -10.6169 H         1 UNK         0.0769 
    128 H128       31.2342   -2.5516  -10.8568 H         1 UNK         0.0769 
    129 H129       31.3655   -3.5024   -9.3790 H         1 UNK         0.0769 
    130 H130       34.4375   -0.3746   -8.2017 H         1 UNK         0.2981 
    131 H131       35.2171   -2.1957   -6.1576 H         1 UNK         0.0541 
    132 H132       37.2309   -3.3440   -5.7884 H         1 UNK         0.3459 
    133 H133       38.2342   -3.8038   -7.1381 H         1 UNK         0.3459 
    134 H134       36.7415    0.2874   -7.0910 H         1 UNK         0.0612 
    135 H135       36.9376   -0.5189   -5.5562 H         1 UNK         0.0612 
    136 H136       34.9658   -1.0800   -4.0693 H         1 UNK         0.0624 
    137 H137       34.7744    0.4462   -3.2489 H         1 UNK         0.0624 
@<TRIPOS>BOND
     1    1    2 1    
     2    1   72 1    
     3    1   73 1    
     4    1   74 1    
     5    2    3 2    
     6    2    4 am   BACKBONE|DICT|INTERRES
     7    4    5 1    
     8    4   75 1    
     9    5    6 1    
    10    5   35 1    
    11    5   76 1    
    12    6    7 1    
    13    6   77 1    
    14    6   78 1    
    15    7    8 1    
    16    8    9 1    
    17    8   79 1    
    18    8   80 1    
    19    9   10 ar   
    20    9   14 ar   
    21   10   11 ar   
    22   10   81 1    
    23   11   12 ar   
    24   11   71 1    
    25   12   13 ar   
    26   12   82 1    
    27   13   14 ar   
    28   13   15 1    
    29   14   83 1    
    30   15   16 1    
    31   15   84 1    
    32   15   85 1    
    33   16   17 1    
    34   17   18 1    
    35   17   86 1    
    36   17   87 1    
    37   18   19 1    
    38   18   37 1    
    39   18   88 1    
    40   19   20 am   BACKBONE|DICT|INTERRES
    41   19   89 1    
    42   20   21 2    
    43   20   22 1    
    44   22   23 1    
    45   22   24 1    
    46   22   90 1    
    47   23   91 1    
    48   23   92 1    
    49   23   93 1    
    50   24   25 am   BACKBONE|DICT|INTERRES
    51   24   94 1    
    52   25   26 2    
    53   25   27 1    
    54   27   28 1    
    55   27   29 1    
    56   27   95 1    
    57   28   96 1    
    58   28   97 1    
    59   28   98 1    
    60   29   30 am   BACKBONE|DICT|INTERRES
    61   29   99 1    
    62   30   31 2    
    63   30   32 1    
    64   32   33 1    
    65   32   34 1    
    66   32  100 1    
    67   33  101 1    
    68   33  102 1    
    69   33  103 1    
    70   34   35 am   BACKBONE|DICT|INTERRES
    71   34  104 1    
    72   35   36 2    
    73   37   38 2    
    74   37   39 am   BACKBONE|DICT|INTERRES
    75   39   40 1    
    76   39  105 1    
    77   40   41 1    
    78   40   42 1    
    79   40  106 1    
    80   41  107 1    
    81   41  108 1    
    82   41  109 1    
    83   42   43 2    
    84   42   44 am   BACKBONE|DICT|INTERRES
    85   44   45 1    
    86   44  110 1    
    87   45   46 1    
    88   45   47 1    
    89   45  111 1    
    90   46  112 1    
    91   46  113 1    
    92   46  114 1    
    93   47   48 2    
    94   47   49 am   BACKBONE|DICT|INTERRES
    95   49   50 1    
    96   49  115 1    
    97   50   51 1    
    98   50   52 1    
    99   50  116 1    
   100   51  117 1    
   101   51  118 1    
   102   51  119 1    
   103   52   53 2    
   104   52   54 am   BACKBONE|DICT|INTERRES
   105   54   55 1    
   106   54  120 1    
   107   55   56 1    
   108   55   57 1    
   109   55  121 1    
   110   56  122 1    
   111   56  123 1    
   112   56  124 1    
   113   57   58 2    
   114   57   59 am   BACKBONE|DICT|INTERRES
   115   59   60 1    
   116   59  125 1    
   117   60   61 1    
   118   60   62 1    
   119   60  126 1    
   120   61  127 1    
   121   61  128 1    
   122   61  129 1    
   123   62   63 2    
   124   62   64 am   BACKBONE|DICT|INTERRES
   125   64   65 1    
   126   64  130 1    
   127   65   66 1    
   128   65   69 1    
   129   65  131 1    
   130   66   67 am   BACKBONE|DICT|INTERRES
   131   66   68 2    
   132   67  132 1    
   133   67  133 1    
   134   69   70 1    
   135   69  134 1    
   136   69  135 1    
   137   70   71 1    
   138   71  136 1    
   139   71  137 1    
@<TRIPOS>SUBSTRUCTURE
     1 UNK         1 GROUP             0       ****    0 ROOT    
