@<TRIPOS>MOLECULE
3R137
137   139    1
SMALL
USER_CHARGES


@<TRIPOS>ATOM
      1 CA         30.5609    0.4008   -1.7707 C.3       0 UNK        -0.2020 
      2 C          29.7050   -0.7401   -2.2985 C.2       0 UNK         0.4855 
      3 O          29.3052   -0.7100   -3.4593 O.2       0 UNK        -0.5197 
      4 N          29.4240   -1.7444   -1.4563 N.am      1 UNK        -0.4892 
      5 CA         28.6717   -2.9538   -1.8242 C.3       1 UNK         0.0835 
      6 C6         28.9454   -4.1368   -0.8589 C.3       12 UNK        -0.0855 
      7 S7         30.7201   -4.4839   -0.5982 S.3       12 UNK        -0.2931 
      8 C8         31.0462   -5.7907   -1.8254 C.3       12 UNK         0.0378 
      9 C9         31.0992   -5.2352   -3.2413 C.ar      12 UNK        -0.0802 
     10 C10        32.1885   -4.4561   -3.6455 C.ar      12 UNK        -0.0944 
     11 C11        32.2431   -3.9304   -4.9392 C.ar      12 UNK        -0.0787 
     12 C12        31.2018   -4.1916   -5.8326 C.ar      12 UNK        -0.0862 
     13 C13        30.1052   -4.9644   -5.4398 C.ar      12 UNK        -0.0733 
     14 C14        30.0644   -5.4948   -4.1460 C.ar      12 UNK        -0.0832 
     15 C15        28.9567   -5.2036   -6.4112 C.3       12 UNK         0.0240 
     16 S16        27.4121   -4.4093   -5.8600 S.3       12 UNK        -0.2522 
     17 C17        27.9052   -2.6575   -5.7131 C.3       12 UNK        -0.0967 
     18 CA         27.1363   -1.7395   -6.6793 C.3       5 UNK         0.0660 
     19 N          25.6967   -1.7357   -6.4178 N.am      5 UNK        -0.4015 
     20 C          24.7773   -1.2711   -7.2718 C.2       4 UNK         0.4946 
     21 O          25.0451   -0.7972   -8.3766 O.2       4 UNK        -0.5353 
     22 CA         23.3188   -1.3028   -6.7895 C.3       4 UNK         0.0277 
     23 CB         22.7712   -2.7396   -6.7816 C.3       4 UNK        -0.1981 
     24 N          23.1579   -0.7001   -5.4636 N.am      4 UNK        -0.4209 
     25 C          23.3720    0.5962   -5.1984 C.2       3 UNK         0.4942 
     26 O          23.7011    1.4243   -6.0480 O.2       3 UNK        -0.5208 
     27 CA         23.2045    1.0528   -3.7385 C.3       3 UNK         0.0250 
     28 CB         21.7324    1.3943   -3.4549 C.3       3 UNK        -0.1990 
     29 N          23.6952    0.1266   -2.7080 N.am      3 UNK        -0.4232 
     30 C          24.9104   -0.4397   -2.6533 C.2       2 UNK         0.4993 
     31 O          25.7299   -0.3894   -3.5721 O.2       2 UNK        -0.5286 
     32 CA         25.2719   -1.1278   -1.3219 C.3       2 UNK         0.0209 
     33 CB         24.2472   -2.2123   -0.9185 C.3       2 UNK        -0.1931 
     34 N          26.6511   -1.6408   -1.3002 N.am      2 UNK        -0.4546 
     35 C          27.1497   -2.7093   -1.9422 C.2       1 UNK         0.5154 
     36 O          26.4677   -3.5026   -2.5913 O.2       1 UNK        -0.5181 
     37 C          27.7189   -0.3159   -6.6521 C.2       5 UNK         0.5014 
     38 O          28.5899   -0.0182   -7.4690 O.2       5 UNK        -0.5248 
     39 N          27.2080    0.5537   -5.7684 N.am      6 UNK        -0.4434 
     40 CA         27.5754    1.9698   -5.6939 C.3       6 UNK         0.0363 
     41 CB         26.8843    2.6259   -4.4902 C.3       6 UNK        -0.1936 
     42 C          27.2643    2.7437   -6.9892 C.2       6 UNK         0.5081 
     43 O          28.0069    3.6619   -7.3346 O.2       6 UNK        -0.5248 
     44 N          26.1959    2.3473   -7.6933 N.am      7 UNK        -0.4718 
     45 CA         25.8598    2.8473   -9.0239 C.3       7 UNK         0.0273 
     46 CB         24.3538    2.6651   -9.2755 C.3       7 UNK        -0.1935 
     47 C          26.6887    2.1612  -10.1234 C.2       7 UNK         0.5018 
     48 O          27.2448    2.8547  -10.9757 O.2       7 UNK        -0.5186 
     49 N          26.7274    0.8203  -10.1109 N.am      8 UNK        -0.4240 
     50 CA         27.3097    0.0061  -11.1821 C.3       8 UNK         0.0235 
     51 CB         26.7799   -1.4337  -11.0776 C.3       8 UNK        -0.2000 
     52 C          28.8469    0.0052  -11.2269 C.2       8 UNK         0.4941 
     53 O          29.4116    0.1080  -12.3170 O.2       8 UNK        -0.5273 
     54 N          29.4908   -0.1537  -10.0648 N.am      9 UNK        -0.4262 
     55 CA         30.9394   -0.3282   -9.9220 C.3       9 UNK         0.0264 
     56 CB         31.2130   -1.6419   -9.1676 C.3       9 UNK        -0.1955 
     57 C          31.5996    0.8409   -9.1794 C.2       9 UNK         0.5031 
     58 O          32.7550    1.1541   -9.4728 O.2       9 UNK        -0.5390 
     59 N          30.8809    1.4434   -8.2208 N.am      10 UNK        -0.4204 
     60 CA         31.3007    2.5042   -7.2949 C.3       10 UNK         0.0237 
     61 CB         31.7644    3.7796   -8.0281 C.3       10 UNK        -0.1985 
     62 C          32.3240    2.0235   -6.2529 C.2       10 UNK         0.4970 
     63 O          32.0273    2.0890   -5.0599 O.2       10 UNK        -0.4914 
     64 N          33.4766    1.5390   -6.7360 N.am      11 UNK        -0.4285 
     65 CA         34.6098    0.9505   -6.0025 C.3       11 UNK         0.1007 
     66 C          35.0056    1.6728   -4.6780 C.2       11 UNK         0.5703 
     67 N          35.2625    0.9553   -3.5917 N.am      11 UNK        -0.7361 
     68 O          35.1503    2.8939   -4.6538 O.2       11 UNK        -0.4986 
     69 C69        34.5491   -0.6054   -5.9553 C.3       12 UNK        -0.0947 
     70 S70        33.1001   -1.3124   -5.1037 S.3       12 UNK        -0.2240 
     71 C71        33.4229   -3.0796   -5.3782 C.3       12 UNK         0.0194 
     72 H72        29.9950    1.3319   -1.7874 H         1 UNK         0.0906 
     73 H73        30.8987    0.2223   -0.7502 H         1 UNK         0.0906 
     74 H74        31.4401    0.5279   -2.4031 H         1 UNK         0.0906 
     75 H75        29.8052   -1.7368   -0.5205 H         1 UNK         0.3140 
     76 H76        29.0101   -3.2540   -2.8179 H         1 UNK         0.1085 
     77 H77        28.4561   -5.0435   -1.2204 H         1 UNK         0.0836 
     78 H78        28.5074   -3.9329    0.1203 H         1 UNK         0.0836 
     79 H79        30.2949   -6.5770   -1.7371 H         1 UNK         0.0731 
     80 H80        32.0035   -6.2591   -1.5919 H         1 UNK         0.0731 
     81 H81        32.9876   -4.2491   -2.9467 H         1 UNK         0.1312 
     82 H82        31.2400   -3.7765   -6.8303 H         1 UNK         0.1406 
     83 H83        29.2129   -6.0879   -3.8403 H         1 UNK         0.1631 
     84 H84        29.2049   -4.8371   -7.4087 H         1 UNK         0.0717 
     85 H85        28.7876   -6.2766   -6.5109 H         1 UNK         0.0717 
     86 H86        27.7261   -2.3407   -4.6878 H         1 UNK         0.0934 
     87 H87        28.9793   -2.5550   -5.8715 H         1 UNK         0.0934 
     88 H88        27.2877   -2.1234   -7.6902 H         1 UNK         0.0739 
     89 H89        25.4075   -2.0575   -5.5050 H         1 UNK         0.3093 
     90 H90        22.7265   -0.7183   -7.4971 H         1 UNK         0.0818 
     91 H91        21.7099   -2.7573   -6.5332 H         1 UNK         0.0819 
     92 H92        22.8795   -3.2020   -7.7638 H         1 UNK         0.0819 
     93 H93        23.2943   -3.3733   -6.0642 H         1 UNK         0.0819 
     94 H94        22.8945   -1.3095   -4.7030 H         1 UNK         0.3041 
     95 H95        23.7819    1.9718   -3.6270 H         1 UNK         0.0784 
     96 H96        21.3445    2.0974   -4.1937 H         1 UNK         0.0793 
     97 H97        21.0984    0.5072   -3.4851 H         1 UNK         0.0793 
     98 H98        21.6127    1.8603   -2.4766 H         1 UNK         0.0793 
     99 H99        23.0910    0.0136   -1.9069 H         1 UNK         0.3024 
    100 H100       25.2431   -0.3466   -0.5603 H         1 UNK         0.1171 
    101 H101       24.5704   -2.7512   -0.0278 H         1 UNK         0.0786 
    102 H102       23.2751   -1.7754   -0.6887 H         1 UNK         0.0786 
    103 H103       24.0903   -2.9433   -1.7123 H         1 UNK         0.0786 
    104 H104       27.3237   -1.0486   -0.8339 H         1 UNK         0.2977 
    105 H105       26.5585    0.2094   -5.0611 H         1 UNK         0.3127 
    106 H106       28.6517    2.0097   -5.5227 H         1 UNK         0.0770 
    107 H107       25.8017    2.6378   -4.6095 H         1 UNK         0.0814 
    108 H108       27.2104    3.6598   -4.3711 H         1 UNK         0.0814 
    109 H109       27.1180    2.1014   -3.5634 H         1 UNK         0.0814 
    110 H110       25.6020    1.6211   -7.3104 H         1 UNK         0.2983 
    111 H111       26.0764    3.9174   -9.0632 H         1 UNK         0.0947 
    112 H112       24.0741    3.0381  -10.2616 H         1 UNK         0.0806 
    113 H113       23.7629    3.2128   -8.5410 H         1 UNK         0.0806 
    114 H114       24.0550    1.6175   -9.2244 H         1 UNK         0.0806 
    115 H115       26.2081    0.3214   -9.3916 H         1 UNK         0.3000 
    116 H116       26.9603    0.4152  -12.1329 H         1 UNK         0.0850 
    117 H117       27.1706   -2.0548  -11.8848 H         1 UNK         0.0810 
    118 H118       25.6922   -1.4613  -11.1451 H         1 UNK         0.0810 
    119 H119       27.0667   -1.9030  -10.1362 H         1 UNK         0.0810 
    120 H120       28.9508   -0.1805   -9.2013 H         1 UNK         0.3040 
    121 H121       31.4137   -0.3978  -10.9031 H         1 UNK         0.0766 
    122 H122       30.8065   -2.4989   -9.7046 H         1 UNK         0.0812 
    123 H123       30.7749   -1.6338   -8.1684 H         1 UNK         0.0812 
    124 H124       32.2846   -1.8102   -9.0505 H         1 UNK         0.0812 
    125 H125       29.9752    1.0306   -8.0029 H         1 UNK         0.3205 
    126 H126       30.4063    2.7762   -6.7382 H         1 UNK         0.0754 
    127 H127       31.9758    4.5778   -7.3156 H         1 UNK         0.0769 
    128 H128       30.9905    4.1456   -8.7031 H         1 UNK         0.0769 
    129 H129       32.6711    3.6211   -8.6117 H         1 UNK         0.0769 
    130 H130       33.5556    1.5160   -7.7483 H         1 UNK         0.2981 
    131 H131       35.4608    1.1726   -6.6473 H         1 UNK         0.0541 
    132 H132       35.1313   -0.0439   -3.5986 H         1 UNK         0.3459 
    133 H133       35.5430    1.4243   -2.7452 H         1 UNK         0.3459 
    134 H134       35.4573   -1.0125   -5.5077 H         1 UNK         0.0612 
    135 H135       34.5388   -0.9840   -6.9787 H         1 UNK         0.0612 
    136 H136       34.3241   -3.3707   -4.8363 H         1 UNK         0.0624 
    137 H137       33.6277   -3.2518   -6.4361 H         1 UNK         0.0624 
@<TRIPOS>BOND
     1    1    2 1    
     2    1   72 1    
     3    1   73 1    
     4    1   74 1    
     5    2    3 2    
     6    2    4 am   BACKBONE|DICT|INTERRES
     7    4    5 1    
     8    4   75 1    
     9    5    6 1    
    10    5   35 1    
    11    5   76 1    
    12    6    7 1    
    13    6   77 1    
    14    6   78 1    
    15    7    8 1    
    16    8    9 1    
    17    8   79 1    
    18    8   80 1    
    19    9   10 ar   
    20    9   14 ar   
    21   10   11 ar   
    22   10   81 1    
    23   11   12 ar   
    24   11   71 1    
    25   12   13 ar   
    26   12   82 1    
    27   13   14 ar   
    28   13   15 1    
    29   14   83 1    
    30   15   16 1    
    31   15   84 1    
    32   15   85 1    
    33   16   17 1    
    34   17   18 1    
    35   17   86 1    
    36   17   87 1    
    37   18   19 1    
    38   18   37 1    
    39   18   88 1    
    40   19   20 am   BACKBONE|DICT|INTERRES
    41   19   89 1    
    42   20   21 2    
    43   20   22 1    
    44   22   23 1    
    45   22   24 1    
    46   22   90 1    
    47   23   91 1    
    48   23   92 1    
    49   23   93 1    
    50   24   25 am   BACKBONE|DICT|INTERRES
    51   24   94 1    
    52   25   26 2    
    53   25   27 1    
    54   27   28 1    
    55   27   29 1    
    56   27   95 1    
    57   28   96 1    
    58   28   97 1    
    59   28   98 1    
    60   29   30 am   BACKBONE|DICT|INTERRES
    61   29   99 1    
    62   30   31 2    
    63   30   32 1    
    64   32   33 1    
    65   32   34 1    
    66   32  100 1    
    67   33  101 1    
    68   33  102 1    
    69   33  103 1    
    70   34   35 am   BACKBONE|DICT|INTERRES
    71   34  104 1    
    72   35   36 2    
    73   37   38 2    
    74   37   39 am   BACKBONE|DICT|INTERRES
    75   39   40 1    
    76   39  105 1    
    77   40   41 1    
    78   40   42 1    
    79   40  106 1    
    80   41  107 1    
    81   41  108 1    
    82   41  109 1    
    83   42   43 2    
    84   42   44 am   BACKBONE|DICT|INTERRES
    85   44   45 1    
    86   44  110 1    
    87   45   46 1    
    88   45   47 1    
    89   45  111 1    
    90   46  112 1    
    91   46  113 1    
    92   46  114 1    
    93   47   48 2    
    94   47   49 am   BACKBONE|DICT|INTERRES
    95   49   50 1    
    96   49  115 1    
    97   50   51 1    
    98   50   52 1    
    99   50  116 1    
   100   51  117 1    
   101   51  118 1    
   102   51  119 1    
   103   52   53 2    
   104   52   54 am   BACKBONE|DICT|INTERRES
   105   54   55 1    
   106   54  120 1    
   107   55   56 1    
   108   55   57 1    
   109   55  121 1    
   110   56  122 1    
   111   56  123 1    
   112   56  124 1    
   113   57   58 2    
   114   57   59 am   BACKBONE|DICT|INTERRES
   115   59   60 1    
   116   59  125 1    
   117   60   61 1    
   118   60   62 1    
   119   60  126 1    
   120   61  127 1    
   121   61  128 1    
   122   61  129 1    
   123   62   63 2    
   124   62   64 am   BACKBONE|DICT|INTERRES
   125   64   65 1    
   126   64  130 1    
   127   65   66 1    
   128   65   69 1    
   129   65  131 1    
   130   66   67 am   BACKBONE|DICT|INTERRES
   131   66   68 2    
   132   67  132 1    
   133   67  133 1    
   134   69   70 1    
   135   69  134 1    
   136   69  135 1    
   137   70   71 1    
   138   71  136 1    
   139   71  137 1    
@<TRIPOS>SUBSTRUCTURE
     1 UNK         1 GROUP             0       ****    0 ROOT    
