@<TRIPOS>MOLECULE
3R137
137   139    1
SMALL
USER_CHARGES


@<TRIPOS>ATOM
      1 CA         29.8637    3.0718   -3.2803 C.3       0 UNK        -0.2020 
      2 C          29.5528    1.8499   -2.4288 C.2       0 UNK         0.4855 
      3 O          29.7349    1.8919   -1.2122 O.2       0 UNK        -0.5197 
      4 N          29.0928    0.7714   -3.0769 N.am      1 UNK        -0.4892 
      5 CA         28.5896   -0.4796   -2.4984 C.3       1 UNK         0.0835 
      6 C6         29.5431   -1.1485   -1.4715 C.3       12 UNK        -0.0855 
      7 S7         29.2536   -2.9478   -1.3168 S.3       12 UNK        -0.2931 
      8 C8         30.9090   -3.6751   -1.6072 C.3       12 UNK         0.0378 
      9 C9         31.2918   -3.9209   -3.0702 C.ar      12 UNK        -0.0802 
     10 C10        32.6442   -4.0797   -3.3890 C.ar      12 UNK        -0.0944 
     11 C11        33.0477   -4.3585   -4.6980 C.ar      12 UNK        -0.0787 
     12 C12        32.0825   -4.4521   -5.7037 C.ar      12 UNK        -0.0862 
     13 C13        30.7228   -4.2928   -5.4168 C.ar      12 UNK        -0.0733 
     14 C14        30.3380   -4.0570   -4.0877 C.ar      12 UNK        -0.0832 
     15 C15        29.7329   -4.3840   -6.5871 C.3       12 UNK         0.0240 
     16 S16        27.9515   -4.2500   -6.1903 S.3       12 UNK        -0.2522 
     17 C17        27.8323   -2.5394   -5.5758 C.3       12 UNK        -0.0967 
     18 CA         27.1287   -1.5575   -6.5346 C.3       5 UNK         0.0660 
     19 N          25.7658   -1.9642   -6.8751 N.am      5 UNK        -0.4015 
     20 C          25.0962   -1.5016   -7.9403 C.2       4 UNK         0.4946 
     21 O          25.5741   -0.7011   -8.7449 O.2       4 UNK        -0.5353 
     22 CA         23.6338   -1.9531   -8.1084 C.3       4 UNK         0.0277 
     23 CB         23.5603   -3.2119   -8.9865 C.3       4 UNK        -0.1981 
     24 N          22.9402   -2.1988   -6.8387 N.am      4 UNK        -0.4209 
     25 C          22.7709   -1.2859   -5.8716 C.2       3 UNK         0.4942 
     26 O          23.1667   -0.1233   -5.9675 O.2       3 UNK        -0.5208 
     27 CA         22.1038   -1.7391   -4.5568 C.3       3 UNK         0.0250 
     28 CB         21.6662   -3.2224   -4.5437 C.3       3 UNK        -0.1990 
     29 N          22.9538   -1.4480   -3.3929 N.am      3 UNK        -0.4232 
     30 C          24.2187   -1.8549   -3.2090 C.2       2 UNK         0.4993 
     31 O          24.8387   -2.5610   -4.0097 O.2       2 UNK        -0.5286 
     32 CA         24.9013   -1.4143   -1.9069 C.3       2 UNK         0.0209 
     33 CB         24.5790   -2.4014   -0.7730 C.3       2 UNK        -0.1931 
     34 N          26.3484   -1.3930   -2.1180 N.am      2 UNK        -0.4546 
     35 C          27.1332   -0.3165   -2.0017 C.2       1 UNK         0.5154 
     36 O          26.7331    0.7657   -1.5663 O.2       1 UNK        -0.5181 
     37 C          27.1977   -0.1224   -5.9696 C.2       5 UNK         0.5014 
     38 O          28.2939    0.4383   -5.9233 O.2       5 UNK        -0.5248 
     39 N          26.0732    0.4678   -5.5347 N.am      6 UNK        -0.4434 
     40 CA         26.0226    1.8844   -5.1609 C.3       6 UNK         0.0363 
     41 CB         24.7753    2.1815   -4.3143 C.3       6 UNK        -0.1936 
     42 C          26.0706    2.7701   -6.4153 C.2       6 UNK         0.5081 
     43 O          26.8165    3.7481   -6.4392 O.2       6 UNK        -0.5248 
     44 N          25.3194    2.3730   -7.4533 N.am      7 UNK        -0.4718 
     45 CA         25.3050    3.0179   -8.7685 C.3       7 UNK         0.0273 
     46 CB         24.1129    2.4936   -9.5853 C.3       7 UNK        -0.1935 
     47 C          26.6230    2.8271   -9.5386 C.2       7 UNK         0.5018 
     48 O          27.0911    3.7723  -10.1734 O.2       7 UNK        -0.5186 
     49 N          27.2107    1.6242   -9.4503 N.am      8 UNK        -0.4240 
     50 CA         28.4940    1.2780  -10.0743 C.3       8 UNK         0.0235 
     51 CB         28.6185   -0.2516  -10.1703 C.3       8 UNK        -0.2000 
     52 C          29.7287    1.8695   -9.3635 C.2       8 UNK         0.4941 
     53 O          30.8267    1.7543   -9.9089 O.2       8 UNK        -0.5273 
     54 N          29.5394    2.4771   -8.1808 N.am      9 UNK        -0.4262 
     55 CA         30.5625    3.0644   -7.3068 C.3       9 UNK         0.0264 
     56 CB         31.2692    4.2566   -7.9874 C.3       9 UNK        -0.1955 
     57 C          31.5396    2.0039   -6.7635 C.2       9 UNK         0.5031 
     58 O          32.7558    2.1304   -6.9256 O.2       9 UNK        -0.5390 
     59 N          30.9679    0.9737   -6.1254 N.am      10 UNK        -0.4204 
     60 CA         31.6255   -0.1965   -5.5420 C.3       10 UNK         0.0237 
     61 CB         32.5279    0.1928   -4.3459 C.3       10 UNK        -0.1985 
     62 C          32.3250   -1.0252   -6.6300 C.2       10 UNK         0.4970 
     63 O          31.6639   -1.4463   -7.5804 O.2       10 UNK        -0.4914 
     64 N          33.6281   -1.2619   -6.4591 N.am      11 UNK        -0.4285 
     65 CA         34.4581   -2.1069   -7.3244 C.3       11 UNK         0.1007 
     66 C          34.7872   -1.4947   -8.7178 C.2       11 UNK         0.5703 
     67 N          34.4801   -0.2297   -8.9826 N.am      11 UNK        -0.7361 
     68 O          35.3302   -2.1855   -9.5767 O.2       11 UNK        -0.4986 
     69 C69        35.7482   -2.5791   -6.5987 C.3       12 UNK        -0.0947 
     70 S70        35.5242   -3.0968   -4.8584 S.3       12 UNK        -0.2240 
     71 C71        34.5199   -4.6077   -5.0081 C.3       12 UNK         0.0194 
     72 H72        30.9263    3.1069   -3.5194 H         1 UNK         0.0906 
     73 H73        29.6044    3.9835   -2.7424 H         1 UNK         0.0906 
     74 H74        29.2975    3.0640   -4.2110 H         1 UNK         0.0906 
     75 H75        28.9448    0.8406   -4.0780 H         1 UNK         0.3140 
     76 H76        28.5519   -1.1444   -3.3549 H         1 UNK         0.1085 
     77 H77        29.4466   -0.6863   -0.4874 H         1 UNK         0.0836 
     78 H78        30.5783   -0.9901   -1.7779 H         1 UNK         0.0836 
     79 H79        31.6595   -3.0476   -1.1236 H         1 UNK         0.0731 
     80 H80        30.9436   -4.6361   -1.0926 H         1 UNK         0.0731 
     81 H81        33.3911   -4.0094   -2.6095 H         1 UNK         0.1312 
     82 H82        32.3884   -4.6604   -6.7197 H         1 UNK         0.1406 
     83 H83        29.2926   -3.9843   -3.8346 H         1 UNK         0.1631 
     84 H84        29.8857   -5.3381   -7.0934 H         1 UNK         0.0717 
     85 H85        29.9779   -3.6098   -7.3158 H         1 UNK         0.0717 
     86 H86        27.3149   -2.5803   -4.6189 H         1 UNK         0.0934 
     87 H87        28.8412   -2.1793   -5.3739 H         1 UNK         0.0934 
     88 H88        27.7069   -1.5534   -7.4581 H         1 UNK         0.0739 
     89 H89        25.3019   -2.5755   -6.2134 H         1 UNK         0.3093 
     90 H90        23.1044   -1.1466   -8.6203 H         1 UNK         0.0818 
     91 H91        24.0503   -3.0456   -9.9471 H         1 UNK         0.0819 
     92 H92        24.0507   -4.0642   -8.5143 H         1 UNK         0.0819 
     93 H93        22.5275   -3.4907   -9.1967 H         1 UNK         0.0819 
     94 H94        22.6035   -3.1368   -6.6755 H         1 UNK         0.3041 
     95 H95        21.2069   -1.1274   -4.4490 H         1 UNK         0.0784 
     96 H96        20.9577   -3.4360   -5.3453 H         1 UNK         0.0793 
     97 H97        22.5109   -3.9046   -4.6492 H         1 UNK         0.0793 
     98 H98        21.1646   -3.4699   -3.6080 H         1 UNK         0.0793 
     99 H99        22.5336   -0.8538   -2.6916 H         1 UNK         0.3024 
    100 H100       24.5326   -0.4219   -1.6368 H         1 UNK         0.1171 
    101 H101       23.5065   -2.4408   -0.5779 H         1 UNK         0.0786 
    102 H102       24.9051   -3.4142   -1.0141 H         1 UNK         0.0786 
    103 H103       25.0665   -2.1066    0.1566 H         1 UNK         0.0786 
    104 H104       26.7312   -2.2480   -2.4977 H         1 UNK         0.2977 
    105 H105       25.1839   -0.0159   -5.6085 H         1 UNK         0.3127 
    106 H106       26.8947    2.1171   -4.5468 H         1 UNK         0.0770 
    107 H107       23.8541    2.0935   -4.8897 H         1 UNK         0.0814 
    108 H108       24.8117    3.1991   -3.9238 H         1 UNK         0.0814 
    109 H109       24.7052    1.5102   -3.4590 H         1 UNK         0.0814 
    110 H110       24.7451    1.5480   -7.3441 H         1 UNK         0.2983 
    111 H111       25.1668    4.0906   -8.6149 H         1 UNK         0.0947 
    112 H112       24.1814    1.4195   -9.7616 H         1 UNK         0.0806 
    113 H113       24.0648    2.9809  -10.5601 H         1 UNK         0.0806 
    114 H114       23.1678    2.6903   -9.0788 H         1 UNK         0.0806 
    115 H115       26.7067    0.8722   -8.9869 H         1 UNK         0.3000 
    116 H116       28.4878    1.6770  -11.0910 H         1 UNK         0.0850 
    117 H117       29.4654   -0.5313  -10.7983 H         1 UNK         0.0810 
    118 H118       27.7280   -0.7045  -10.6067 H         1 UNK         0.0810 
    119 H119       28.7879   -0.7015   -9.1935 H         1 UNK         0.0810 
    120 H120       28.5936    2.5123   -7.8249 H         1 UNK         0.3040 
    121 H121       30.0273    3.4622   -6.4442 H         1 UNK         0.0766 
    122 H122       31.8702    3.9434   -8.8414 H         1 UNK         0.0812 
    123 H123       31.9397    4.7590   -7.2892 H         1 UNK         0.0812 
    124 H124       30.5496    4.9970   -8.3365 H         1 UNK         0.0812 
    125 H125       29.9496    0.9119   -6.1475 H         1 UNK         0.3205 
    126 H126       30.8309   -0.8325   -5.1510 H         1 UNK         0.0754 
    127 H127       32.9369   -0.6934   -3.8578 H         1 UNK         0.0769 
    128 H128       31.9657    0.7323   -3.5867 H         1 UNK         0.0769 
    129 H129       33.3631    0.8279   -4.6432 H         1 UNK         0.0769 
    130 H130       34.0910   -0.8726   -5.6519 H         1 UNK         0.2981 
    131 H131       33.8714   -3.0003   -7.5403 H         1 UNK         0.0541 
    132 H132       34.6930    0.1512   -9.8905 H         1 UNK         0.3459 
    133 H133       34.0139    0.3406   -8.2918 H         1 UNK         0.3459 
    134 H134       36.4856   -1.7742   -6.5912 H         1 UNK         0.0612 
    135 H135       36.2103   -3.4027   -7.1460 H         1 UNK         0.0612 
    136 H136       34.9049   -5.3477   -4.3052 H         1 UNK         0.0624 
    137 H137       34.6455   -5.0418   -6.0011 H         1 UNK         0.0624 
@<TRIPOS>BOND
     1    1    2 1    
     2    1   72 1    
     3    1   73 1    
     4    1   74 1    
     5    2    3 2    
     6    2    4 am   BACKBONE|DICT|INTERRES
     7    4    5 1    
     8    4   75 1    
     9    5    6 1    
    10    5   35 1    
    11    5   76 1    
    12    6    7 1    
    13    6   77 1    
    14    6   78 1    
    15    7    8 1    
    16    8    9 1    
    17    8   79 1    
    18    8   80 1    
    19    9   10 ar   
    20    9   14 ar   
    21   10   11 ar   
    22   10   81 1    
    23   11   12 ar   
    24   11   71 1    
    25   12   13 ar   
    26   12   82 1    
    27   13   14 ar   
    28   13   15 1    
    29   14   83 1    
    30   15   16 1    
    31   15   84 1    
    32   15   85 1    
    33   16   17 1    
    34   17   18 1    
    35   17   86 1    
    36   17   87 1    
    37   18   19 1    
    38   18   37 1    
    39   18   88 1    
    40   19   20 am   BACKBONE|DICT|INTERRES
    41   19   89 1    
    42   20   21 2    
    43   20   22 1    
    44   22   23 1    
    45   22   24 1    
    46   22   90 1    
    47   23   91 1    
    48   23   92 1    
    49   23   93 1    
    50   24   25 am   BACKBONE|DICT|INTERRES
    51   24   94 1    
    52   25   26 2    
    53   25   27 1    
    54   27   28 1    
    55   27   29 1    
    56   27   95 1    
    57   28   96 1    
    58   28   97 1    
    59   28   98 1    
    60   29   30 am   BACKBONE|DICT|INTERRES
    61   29   99 1    
    62   30   31 2    
    63   30   32 1    
    64   32   33 1    
    65   32   34 1    
    66   32  100 1    
    67   33  101 1    
    68   33  102 1    
    69   33  103 1    
    70   34   35 am   BACKBONE|DICT|INTERRES
    71   34  104 1    
    72   35   36 2    
    73   37   38 2    
    74   37   39 am   BACKBONE|DICT|INTERRES
    75   39   40 1    
    76   39  105 1    
    77   40   41 1    
    78   40   42 1    
    79   40  106 1    
    80   41  107 1    
    81   41  108 1    
    82   41  109 1    
    83   42   43 2    
    84   42   44 am   BACKBONE|DICT|INTERRES
    85   44   45 1    
    86   44  110 1    
    87   45   46 1    
    88   45   47 1    
    89   45  111 1    
    90   46  112 1    
    91   46  113 1    
    92   46  114 1    
    93   47   48 2    
    94   47   49 am   BACKBONE|DICT|INTERRES
    95   49   50 1    
    96   49  115 1    
    97   50   51 1    
    98   50   52 1    
    99   50  116 1    
   100   51  117 1    
   101   51  118 1    
   102   51  119 1    
   103   52   53 2    
   104   52   54 am   BACKBONE|DICT|INTERRES
   105   54   55 1    
   106   54  120 1    
   107   55   56 1    
   108   55   57 1    
   109   55  121 1    
   110   56  122 1    
   111   56  123 1    
   112   56  124 1    
   113   57   58 2    
   114   57   59 am   BACKBONE|DICT|INTERRES
   115   59   60 1    
   116   59  125 1    
   117   60   61 1    
   118   60   62 1    
   119   60  126 1    
   120   61  127 1    
   121   61  128 1    
   122   61  129 1    
   123   62   63 2    
   124   62   64 am   BACKBONE|DICT|INTERRES
   125   64   65 1    
   126   64  130 1    
   127   65   66 1    
   128   65   69 1    
   129   65  131 1    
   130   66   67 am   BACKBONE|DICT|INTERRES
   131   66   68 2    
   132   67  132 1    
   133   67  133 1    
   134   69   70 1    
   135   69  134 1    
   136   69  135 1    
   137   70   71 1    
   138   71  136 1    
   139   71  137 1    
@<TRIPOS>SUBSTRUCTURE
     1 UNK         1 GROUP             0       ****    0 ROOT    
