@<TRIPOS>MOLECULE
3R137
137   139    1
SMALL
USER_CHARGES


@<TRIPOS>ATOM
      1 CA         26.5664   -8.0331   -2.2737 C.3       0 UNK        -0.2020 
      2 C          26.9530   -6.6573   -1.7521 C.2       0 UNK         0.4855 
      3 O          26.9938   -6.4523   -0.5389 O.2       0 UNK        -0.5197 
      4 N          27.2393   -5.7141   -2.6594 N.am      1 UNK        -0.4892 
      5 CA         27.6359   -4.3348   -2.3420 C.3       1 UNK         0.0835 
      6 C6         28.2127   -3.6079   -3.5812 C.3       12 UNK        -0.0855 
      7 S7         29.7859   -4.3332   -4.1529 S.3       12 UNK        -0.2931 
      8 C8         30.9871   -3.6370   -2.9692 C.3       12 UNK         0.0378 
      9 C9         31.0633   -2.1187   -3.0428 C.ar      12 UNK        -0.0802 
     10 C10        31.8509   -1.5013   -4.0176 C.ar      12 UNK        -0.0944 
     11 C11        31.9262   -0.1046   -4.0985 C.ar      12 UNK        -0.0787 
     12 C12        31.1932    0.6668   -3.1905 C.ar      12 UNK        -0.0862 
     13 C13        30.3954    0.0615   -2.2141 C.ar      12 UNK        -0.0733 
     14 C14        30.3469   -1.3320   -2.1364 C.ar      12 UNK        -0.0832 
     15 C15        29.5974    0.9073   -1.2304 C.3       12 UNK         0.0240 
     16 S16        28.4344    2.0429   -2.0536 S.3       12 UNK        -0.2522 
     17 C17        27.2391    0.9066   -2.8449 C.3       12 UNK        -0.0967 
     18 CA         27.2944    0.8972   -4.3963 C.3       5 UNK         0.0660 
     19 N          26.3998   -0.1264   -4.9543 N.am      5 UNK        -0.4015 
     20 C          26.2879   -0.4166   -6.2623 C.2       4 UNK         0.4946 
     21 O          27.0044    0.0845   -7.1277 O.2       4 UNK        -0.5353 
     22 CA         25.1602   -1.3640   -6.7158 C.3       4 UNK         0.0277 
     23 CB         25.7151   -2.7620   -7.0280 C.3       4 UNK        -0.1981 
     24 N          24.0446   -1.4785   -5.7734 N.am      4 UNK        -0.4209 
     25 C          23.2660   -0.4650   -5.3657 C.2       3 UNK         0.4942 
     26 O          23.3649    0.6855   -5.7919 O.2       3 UNK        -0.5208 
     27 CA         22.2572   -0.7672   -4.2414 C.3       3 UNK         0.0250 
     28 CB         20.8783   -1.0968   -4.8347 C.3       3 UNK        -0.1990 
     29 N          22.6618   -1.8414   -3.3212 N.am      3 UNK        -0.4232 
     30 C          23.8132   -1.8929   -2.6327 C.2       2 UNK         0.4993 
     31 O          24.6990   -1.0440   -2.7448 O.2       2 UNK        -0.5286 
     32 CA         24.0361   -3.0960   -1.6951 C.3       2 UNK         0.0209 
     33 CB         22.8553   -4.0883   -1.6427 C.3       2 UNK        -0.1931 
     34 N          25.2444   -3.8216   -2.0895 N.am      2 UNK        -0.4546 
     35 C          26.4943   -3.5011   -1.7250 C.2       1 UNK         0.5154 
     36 O          26.7730   -2.5952   -0.9380 O.2       1 UNK        -0.5181 
     37 C          27.0142    2.2953   -5.0009 C.2       5 UNK         0.5014 
     38 O          27.9612    3.0191   -5.3116 O.2       5 UNK        -0.5248 
     39 N          25.7327    2.6296   -5.2297 N.am      6 UNK        -0.4434 
     40 CA         25.3098    3.8870   -5.8589 C.3       6 UNK         0.0363 
     41 CB         23.7969    4.0756   -5.6660 C.3       6 UNK        -0.1936 
     42 C          25.6807    3.9817   -7.3515 C.2       6 UNK         0.5081 
     43 O          25.7996    5.0907   -7.8723 O.2       6 UNK        -0.5248 
     44 N          25.8803    2.8294   -8.0047 N.am      7 UNK        -0.4718 
     45 CA         26.3720    2.7111   -9.3795 C.3       7 UNK         0.0273 
     46 CB         25.6805    1.5072  -10.0443 C.3       7 UNK        -0.1935 
     47 C          27.9065    2.5671   -9.4438 C.2       7 UNK         0.5018 
     48 O          28.4410    2.4086  -10.5417 O.2       7 UNK        -0.5186 
     49 N          28.5804    2.6024   -8.2823 N.am      8 UNK        -0.4240 
     50 CA         30.0149    2.3843   -8.0632 C.3       8 UNK         0.0235 
     51 CB         30.8670    3.4580   -8.7735 C.3       8 UNK        -0.2000 
     52 C          30.4829    0.9484   -8.3731 C.2       8 UNK         0.4941 
     53 O          31.6744    0.7520   -8.6207 O.2       8 UNK        -0.5273 
     54 N          29.5586   -0.0249   -8.3051 N.am      9 UNK        -0.4262 
     55 CA         29.7443   -1.4743   -8.4389 C.3       9 UNK         0.0264 
     56 CB         30.2029   -2.0506   -7.0829 C.3       9 UNK        -0.1955 
     57 C          30.6534   -1.8591   -9.6228 C.2       9 UNK         0.5031 
     58 O          30.2271   -1.7486  -10.7738 O.2       9 UNK        -0.5390 
     59 N          31.8893   -2.2654   -9.3136 N.am      10 UNK        -0.4204 
     60 CA         32.9867   -2.4634  -10.2572 C.3       10 UNK         0.0237 
     61 CB         33.1847   -3.9718  -10.5022 C.3       10 UNK        -0.1985 
     62 C          34.2625   -1.7691   -9.7419 C.2       10 UNK         0.4970 
     63 O          35.3646   -2.2304  -10.0437 O.2       10 UNK        -0.4914 
     64 N          34.1044   -0.6877   -8.9633 N.am      11 UNK        -0.4285 
     65 CA         35.2125    0.0917   -8.3853 C.3       11 UNK         0.1007 
     66 C          35.8828    1.0775   -9.3860 C.2       11 UNK         0.5703 
     67 N          35.3091    1.3353  -10.5559 N.am      11 UNK        -0.7361 
     68 O          36.9526    1.6100   -9.0991 O.2       11 UNK        -0.4986 
     69 C69        34.7937    0.8262   -7.0831 C.3       12 UNK        -0.0947 
     70 S70        34.1974   -0.3068   -5.7817 S.3       12 UNK        -0.2240 
     71 C71        32.7365    0.6070   -5.1809 C.3       12 UNK         0.0194 
     72 H72        25.5648   -8.2953   -1.9340 H         1 UNK         0.0906 
     73 H73        26.5770   -8.0754   -3.3628 H         1 UNK         0.0906 
     74 H74        27.2608   -8.7848   -1.8991 H         1 UNK         0.0906 
     75 H75        27.2284   -5.9503   -3.6420 H         1 UNK         0.3140 
     76 H76        28.4143   -4.3860   -1.5780 H         1 UNK         0.1085 
     77 H77        28.3522   -2.5422   -3.3994 H         1 UNK         0.0836 
     78 H78        27.5045   -3.6607   -4.4075 H         1 UNK         0.0836 
     79 H79        31.9702   -4.0602   -3.1814 H         1 UNK         0.0731 
     80 H80        30.7361   -3.9598   -1.9581 H         1 UNK         0.0731 
     81 H81        32.3922   -2.1190   -4.7201 H         1 UNK         0.1312 
     82 H82        31.2283    1.7463   -3.2507 H         1 UNK         0.1406 
     83 H83        29.7362   -1.8067   -1.3799 H         1 UNK         0.1631 
     84 H84        30.2929    1.4945   -0.6294 H         1 UNK         0.0717 
     85 H85        29.0417    0.2802   -0.5312 H         1 UNK         0.0717 
     86 H86        27.4065   -0.1026   -2.4641 H         1 UNK         0.0934 
     87 H87        26.2399    1.1838   -2.5041 H         1 UNK         0.0934 
     88 H88        28.3086    0.6180   -4.6914 H         1 UNK         0.0739 
     89 H89        25.7584   -0.5585   -4.2935 H         1 UNK         0.3093 
     90 H90        24.7584   -0.9469   -7.6417 H         1 UNK         0.0818 
     91 H91        26.0520   -3.2748   -6.1287 H         1 UNK         0.0819 
     92 H92        24.9617   -3.3878   -7.5067 H         1 UNK         0.0819 
     93 H93        26.5643   -2.7049   -7.7103 H         1 UNK         0.0819 
     94 H94        23.8865   -2.3873   -5.3641 H         1 UNK         0.3041 
     95 H95        22.1635    0.1441   -3.6471 H         1 UNK         0.0784 
     96 H96        20.5422   -0.3044   -5.5053 H         1 UNK         0.0793 
     97 H97        20.8964   -2.0239   -5.4093 H         1 UNK         0.0793 
     98 H98        20.1233   -1.1983   -4.0549 H         1 UNK         0.0793 
     99 H99        21.9920   -2.5836   -3.1781 H         1 UNK         0.3024 
    100 H100       24.1751   -2.6865   -0.6917 H         1 UNK         0.1171 
    101 H101       21.9394   -3.6004   -1.3057 H         1 UNK         0.0786 
    102 H102       22.6576   -4.5487   -2.6117 H         1 UNK         0.0786 
    103 H103       23.0580   -4.8932   -0.9355 H         1 UNK         0.0786 
    104 H104       25.1260   -4.5872   -2.7368 H         1 UNK         0.2977 
    105 H105       25.0004    1.9576   -5.0306 H         1 UNK         0.3127 
    106 H106       25.8204    4.7046   -5.3451 H         1 UNK         0.0770 
    107 H107       23.2237    3.3096   -6.1891 H         1 UNK         0.0814 
    108 H108       23.4738    5.0424   -6.0544 H         1 UNK         0.0814 
    109 H109       23.5213    4.0422   -4.6119 H         1 UNK         0.0814 
    110 H110       25.7961    1.9621   -7.4898 H         1 UNK         0.2983 
    111 H111       26.1084    3.6085   -9.9435 H         1 UNK         0.0947 
    112 H112       25.9596    1.4272  -11.0957 H         1 UNK         0.0806 
    113 H113       24.5952    1.6012  -10.0059 H         1 UNK         0.0806 
    114 H114       25.9537    0.5669   -9.5646 H         1 UNK         0.0806 
    115 H115       28.0425    2.7361   -7.4334 H         1 UNK         0.3000 
    116 H116       30.1670    2.5111   -6.9903 H         1 UNK         0.0850 
    117 H117       30.8406    3.3450   -9.8575 H         1 UNK         0.0810 
    118 H118       30.5233    4.4632   -8.5301 H         1 UNK         0.0810 
    119 H119       31.9122    3.3916   -8.4684 H         1 UNK         0.0810 
    120 H120       28.6089    0.2465   -8.0576 H         1 UNK         0.3040 
    121 H121       28.7609   -1.8913   -8.6599 H         1 UNK         0.0766 
    122 H122       31.1467   -1.6155   -6.7561 H         1 UNK         0.0812 
    123 H123       30.3258   -3.1336   -7.1286 H         1 UNK         0.0812 
    124 H124       29.4669   -1.8481   -6.3040 H         1 UNK         0.0812 
    125 H125       32.1409   -2.3044   -8.3355 H         1 UNK         0.3205 
    126 H126       32.7471   -1.9875  -11.2104 H         1 UNK         0.0754 
    127 H127       33.9604   -4.1521  -11.2477 H         1 UNK         0.0769 
    128 H128       32.2699   -4.4349  -10.8726 H         1 UNK         0.0769 
    129 H129       33.4780   -4.4920   -9.5896 H         1 UNK         0.0769 
    130 H130       33.1738   -0.3008   -8.8125 H         1 UNK         0.2981 
    131 H131       35.9973   -0.6143   -8.1070 H         1 UNK         0.0541 
    132 H132       35.7564    1.9711  -11.1971 H         1 UNK         0.3459 
    133 H133       34.4255    0.9141  -10.7931 H         1 UNK         0.3459 
    134 H134       34.0244    1.5679   -7.3054 H         1 UNK         0.0612 
    135 H135       35.6371    1.3793   -6.6656 H         1 UNK         0.0612 
    136 H136       33.0751    1.5767   -4.8127 H         1 UNK         0.0624 
    137 H137       32.0723    0.8074   -6.0181 H         1 UNK         0.0624 
@<TRIPOS>BOND
     1    1    2 1    
     2    1   72 1    
     3    1   73 1    
     4    1   74 1    
     5    2    3 2    
     6    2    4 am   BACKBONE|DICT|INTERRES
     7    4    5 1    
     8    4   75 1    
     9    5    6 1    
    10    5   35 1    
    11    5   76 1    
    12    6    7 1    
    13    6   77 1    
    14    6   78 1    
    15    7    8 1    
    16    8    9 1    
    17    8   79 1    
    18    8   80 1    
    19    9   10 ar   
    20    9   14 ar   
    21   10   11 ar   
    22   10   81 1    
    23   11   12 ar   
    24   11   71 1    
    25   12   13 ar   
    26   12   82 1    
    27   13   14 ar   
    28   13   15 1    
    29   14   83 1    
    30   15   16 1    
    31   15   84 1    
    32   15   85 1    
    33   16   17 1    
    34   17   18 1    
    35   17   86 1    
    36   17   87 1    
    37   18   19 1    
    38   18   37 1    
    39   18   88 1    
    40   19   20 am   BACKBONE|DICT|INTERRES
    41   19   89 1    
    42   20   21 2    
    43   20   22 1    
    44   22   23 1    
    45   22   24 1    
    46   22   90 1    
    47   23   91 1    
    48   23   92 1    
    49   23   93 1    
    50   24   25 am   BACKBONE|DICT|INTERRES
    51   24   94 1    
    52   25   26 2    
    53   25   27 1    
    54   27   28 1    
    55   27   29 1    
    56   27   95 1    
    57   28   96 1    
    58   28   97 1    
    59   28   98 1    
    60   29   30 am   BACKBONE|DICT|INTERRES
    61   29   99 1    
    62   30   31 2    
    63   30   32 1    
    64   32   33 1    
    65   32   34 1    
    66   32  100 1    
    67   33  101 1    
    68   33  102 1    
    69   33  103 1    
    70   34   35 am   BACKBONE|DICT|INTERRES
    71   34  104 1    
    72   35   36 2    
    73   37   38 2    
    74   37   39 am   BACKBONE|DICT|INTERRES
    75   39   40 1    
    76   39  105 1    
    77   40   41 1    
    78   40   42 1    
    79   40  106 1    
    80   41  107 1    
    81   41  108 1    
    82   41  109 1    
    83   42   43 2    
    84   42   44 am   BACKBONE|DICT|INTERRES
    85   44   45 1    
    86   44  110 1    
    87   45   46 1    
    88   45   47 1    
    89   45  111 1    
    90   46  112 1    
    91   46  113 1    
    92   46  114 1    
    93   47   48 2    
    94   47   49 am   BACKBONE|DICT|INTERRES
    95   49   50 1    
    96   49  115 1    
    97   50   51 1    
    98   50   52 1    
    99   50  116 1    
   100   51  117 1    
   101   51  118 1    
   102   51  119 1    
   103   52   53 2    
   104   52   54 am   BACKBONE|DICT|INTERRES
   105   54   55 1    
   106   54  120 1    
   107   55   56 1    
   108   55   57 1    
   109   55  121 1    
   110   56  122 1    
   111   56  123 1    
   112   56  124 1    
   113   57   58 2    
   114   57   59 am   BACKBONE|DICT|INTERRES
   115   59   60 1    
   116   59  125 1    
   117   60   61 1    
   118   60   62 1    
   119   60  126 1    
   120   61  127 1    
   121   61  128 1    
   122   61  129 1    
   123   62   63 2    
   124   62   64 am   BACKBONE|DICT|INTERRES
   125   64   65 1    
   126   64  130 1    
   127   65   66 1    
   128   65   69 1    
   129   65  131 1    
   130   66   67 am   BACKBONE|DICT|INTERRES
   131   66   68 2    
   132   67  132 1    
   133   67  133 1    
   134   69   70 1    
   135   69  134 1    
   136   69  135 1    
   137   70   71 1    
   138   71  136 1    
   139   71  137 1    
@<TRIPOS>SUBSTRUCTURE
     1 UNK         1 GROUP             0       ****    0 ROOT    
