@<TRIPOS>MOLECULE
3R137
137   139    1
SMALL
USER_CHARGES


@<TRIPOS>ATOM
      1 CA         26.0200   -6.8248    0.1676 C.3       0 UNK        -0.2020 
      2 C          24.9121   -6.2550   -0.7139 C.2       0 UNK         0.4855 
      3 O          23.7877   -6.7499   -0.6676 O.2       0 UNK        -0.5197 
      4 N          25.1692   -5.2231   -1.5274 N.am      1 UNK        -0.4892 
      5 CA         26.4464   -4.5182   -1.6789 C.3       1 UNK         0.0835 
      6 C6         27.3962   -5.2291   -2.6855 C.3       12 UNK        -0.0855 
      7 S7         29.1407   -5.2023   -2.1444 S.3       12 UNK        -0.2931 
      8 C8         30.0213   -4.5256   -3.6004 C.3       12 UNK         0.0378 
      9 C9         30.5628   -3.0992   -3.4579 C.ar      12 UNK        -0.0802 
     10 C10        31.4615   -2.6365   -4.4269 C.ar      12 UNK        -0.0944 
     11 C11        32.0280   -1.3622   -4.3305 C.ar      12 UNK        -0.0787 
     12 C12        31.6936   -0.5414   -3.2528 C.ar      12 UNK        -0.0862 
     13 C13        30.7820   -0.9737   -2.2879 C.ar      12 UNK        -0.0733 
     14 C14        30.2156   -2.2486   -2.3977 C.ar      12 UNK        -0.0832 
     15 C15        30.4175   -0.0592   -1.1255 C.3       12 UNK         0.0240 
     16 S16        29.5882    1.4660   -1.6824 S.3       12 UNK        -0.2522 
     17 C17        28.1176    0.7822   -2.5090 C.3       12 UNK        -0.0967 
     18 CA         28.2230    0.8451   -4.0574 C.3       5 UNK         0.0660 
     19 N          27.5629   -0.2996   -4.6885 N.am      5 UNK        -0.4015 
     20 C          27.5265   -0.5637   -6.0028 C.2       4 UNK         0.4946 
     21 O          28.1031    0.0953   -6.8663 O.2       4 UNK        -0.5353 
     22 CA         26.6465   -1.7432   -6.4370 C.3       4 UNK         0.0277 
     23 CB         27.4108   -3.0654   -6.2840 C.3       4 UNK        -0.1981 
     24 N          25.3942   -1.7963   -5.6796 N.am      4 UNK        -0.4209 
     25 C          24.4180   -0.8807   -5.7705 C.2       3 UNK         0.4942 
     26 O          24.4408    0.0746   -6.5466 O.2       3 UNK        -0.5208 
     27 CA         23.2434   -1.0300   -4.7897 C.3       3 UNK         0.0250 
     28 CB         22.2592   -2.1069   -5.2738 C.3       3 UNK        -0.1990 
     29 N          23.6832   -1.3355   -3.4245 N.am      3 UNK        -0.4232 
     30 C          24.4158   -0.5071   -2.6663 C.2       2 UNK         0.4993 
     31 O          24.7757    0.6124   -3.0278 O.2       2 UNK        -0.5286 
     32 CA         24.8562   -1.0219   -1.2864 C.3       2 UNK         0.0209 
     33 CB         23.7696   -0.7384   -0.2371 C.3       2 UNK        -0.1931 
     34 N          25.2163   -2.4449   -1.2474 N.am      2 UNK        -0.4546 
     35 C          26.1724   -3.0318   -1.9854 C.2       1 UNK         0.5154 
     36 O          26.7898   -2.4484   -2.8775 O.2       1 UNK        -0.5181 
     37 C          27.6969    2.1884   -4.6031 C.2       5 UNK         0.5014 
     38 O          28.4909    3.0250   -5.0348 O.2       5 UNK        -0.5248 
     39 N          26.3653    2.3533   -4.5981 N.am      6 UNK        -0.4434 
     40 CA         25.6600    3.5348   -5.0991 C.3       6 UNK         0.0363 
     41 CB         24.1715    3.4364   -4.7288 C.3       6 UNK        -0.1936 
     42 C          25.8268    3.7456   -6.6127 C.2       6 UNK         0.5081 
     43 O          26.0021    4.8841   -7.0479 O.2       6 UNK        -0.5248 
     44 N          25.7813    2.6524   -7.3859 N.am      7 UNK        -0.4718 
     45 CA         25.9884    2.6606   -8.8370 C.3       7 UNK         0.0273 
     46 CB         25.4482    1.3452   -9.4215 C.3       7 UNK        -0.1935 
     47 C          27.4583    2.8567   -9.2530 C.2       7 UNK         0.5018 
     48 O          27.7045    3.2232  -10.4027 O.2       7 UNK        -0.5186 
     49 N          28.3945    2.5699   -8.3351 N.am      8 UNK        -0.4240 
     50 CA         29.8423    2.4358   -8.5392 C.3       8 UNK         0.0235 
     51 CB         30.4860    3.7866   -8.9165 C.3       8 UNK        -0.2000 
     52 C          30.1764    1.3017   -9.5308 C.2       8 UNK         0.4941 
     53 O          31.0816    1.4455  -10.3564 O.2       8 UNK        -0.5273 
     54 N          29.4151    0.2008   -9.4437 N.am      9 UNK        -0.4262 
     55 CA         29.4351   -0.9354  -10.3651 C.3       9 UNK         0.0264 
     56 CB         28.2386   -1.8535  -10.0649 C.3       9 UNK        -0.1955 
     57 C          30.7691   -1.6956  -10.3036 C.2       9 UNK         0.5031 
     58 O          30.9683   -2.5105   -9.4009 O.2       9 UNK        -0.5390 
     59 N          31.6576   -1.3812  -11.2576 N.am      10 UNK        -0.4204 
     60 CA         33.0393   -1.8615  -11.3874 C.3       10 UNK         0.0237 
     61 CB         33.0786   -3.3830  -11.6493 C.3       10 UNK        -0.1985 
     62 C          33.9551   -1.4306  -10.2218 C.2       10 UNK         0.4970 
     63 O          34.9698   -2.0857   -9.9763 O.2       10 UNK        -0.4914 
     64 N          33.6015   -0.3331   -9.5383 N.am      11 UNK        -0.4285 
     65 CA         34.3712    0.2296   -8.4170 C.3       11 UNK         0.1007 
     66 C          35.5981    1.0840   -8.8504 C.2       11 UNK         0.5703 
     67 N          35.7675    1.4138  -10.1259 N.am      11 UNK        -0.7361 
     68 O          36.4208    1.4450   -8.0122 O.2       11 UNK        -0.4986 
     69 C69        33.4684    1.0119   -7.4283 C.3       12 UNK        -0.0947 
     70 S70        32.1272    0.0012   -6.7173 S.3       12 UNK        -0.2240 
     71 C71        33.0048   -0.8623   -5.3816 C.3       12 UNK         0.0194 
     72 H72        26.2398   -6.1469    0.9917 H         1 UNK         0.0906 
     73 H73        25.7144   -7.7803    0.5937 H         1 UNK         0.0906 
     74 H74        26.9344   -6.9969   -0.3989 H         1 UNK         0.0906 
     75 H75        24.4181   -4.8714   -2.1055 H         1 UNK         0.3140 
     76 H76        26.9330   -4.4958   -0.7018 H         1 UNK         0.1085 
     77 H77        27.2825   -4.8384   -3.6956 H         1 UNK         0.0836 
     78 H78        27.1305   -6.2836   -2.7732 H         1 UNK         0.0836 
     79 H79        29.3963   -4.5896   -4.4900 H         1 UNK         0.0731 
     80 H80        30.8670   -5.1881   -3.7907 H         1 UNK         0.0731 
     81 H81        31.7286   -3.2736   -5.2594 H         1 UNK         0.1312 
     82 H82        32.1283    0.4459   -3.1734 H         1 UNK         0.1406 
     83 H83        29.5087   -2.5729   -1.6481 H         1 UNK         0.1631 
     84 H84        31.3259    0.2101   -0.5850 H         1 UNK         0.0717 
     85 H85        29.7752   -0.5732   -0.4086 H         1 UNK         0.0717 
     86 H86        27.9979   -0.2483   -2.1756 H         1 UNK         0.0934 
     87 H87        27.2346    1.3032   -2.1346 H         1 UNK         0.0934 
     88 H88        29.2736    0.7661   -4.3455 H         1 UNK         0.0739 
     89 H89        27.1094   -0.9578   -4.0613 H         1 UNK         0.3093 
     90 H90        26.3971   -1.6074   -7.4913 H         1 UNK         0.0818 
     91 H91        27.6842   -3.2398   -5.2459 H         1 UNK         0.0819 
     92 H92        26.8213   -3.9141   -6.6306 H         1 UNK         0.0819 
     93 H93        28.3388   -3.0534   -6.8570 H         1 UNK         0.0819 
     94 H94        25.3158   -2.5186   -4.9788 H         1 UNK         0.3041 
     95 H95        22.7154   -0.0741   -4.7630 H         1 UNK         0.0784 
     96 H96        21.9108   -1.8889   -6.2845 H         1 UNK         0.0793 
     97 H97        22.7151   -3.0975   -5.2931 H         1 UNK         0.0793 
     98 H98        21.3781   -2.1550   -4.6336 H         1 UNK         0.0793 
     99 H99        23.4208   -2.2319   -3.0427 H         1 UNK         0.3024 
    100 H100       25.7474   -0.4569   -1.0066 H         1 UNK         0.1171 
    101 H101       24.1137   -0.9839    0.7678 H         1 UNK         0.0786 
    102 H102       23.4965    0.3181   -0.2333 H         1 UNK         0.0786 
    103 H103       22.8605   -1.3092   -0.4303 H         1 UNK         0.0786 
    104 H104       24.7495   -3.0063   -0.5487 H         1 UNK         0.2977 
    105 H105       25.7863    1.6281   -4.1755 H         1 UNK         0.3127 
    106 H106       26.0802    4.4080   -4.5958 H         1 UNK         0.0770 
    107 H107       23.7040    2.5560   -5.1722 H         1 UNK         0.0814 
    108 H108       23.6220    4.3113   -5.0785 H         1 UNK         0.0814 
    109 H109       24.0352    3.3771   -3.6488 H         1 UNK         0.0814 
    110 H110       25.5685    1.7556   -6.9587 H         1 UNK         0.2983 
    111 H111       25.4157    3.4869   -9.2640 H         1 UNK         0.0947 
    112 H112       25.5722    1.3146  -10.5049 H         1 UNK         0.0806 
    113 H113       24.3849    1.2258   -9.2130 H         1 UNK         0.0806 
    114 H114       25.9680    0.4805   -9.0074 H         1 UNK         0.0806 
    115 H115       28.0644    2.2289   -7.4394 H         1 UNK         0.3000 
    116 H116       30.2506    2.1331   -7.5744 H         1 UNK         0.0850 
    117 H117       31.5734    3.7076   -8.9369 H         1 UNK         0.0810 
    118 H118       30.2306    4.5615   -8.1939 H         1 UNK         0.0810 
    119 H119       30.1686    4.1270   -9.9024 H         1 UNK         0.0810 
    120 H120       28.7863    0.1350   -8.6462 H         1 UNK         0.3040 
    121 H121       29.3024   -0.5443  -11.3761 H         1 UNK         0.0766 
    122 H122       27.2920   -1.3258  -10.1806 H         1 UNK         0.0812 
    123 H123       28.2821   -2.2490   -9.0512 H         1 UNK         0.0812 
    124 H124       28.2209   -2.7054  -10.7456 H         1 UNK         0.0812 
    125 H125       31.3944   -0.6529  -11.9089 H         1 UNK         0.3205 
    126 H126       33.4428   -1.3698  -12.2737 H         1 UNK         0.0754 
    127 H127       34.0867   -3.7111  -11.9059 H         1 UNK         0.0769 
    128 H128       32.4294   -3.6599  -12.4800 H         1 UNK         0.0769 
    129 H129       32.7659   -3.9535  -10.7742 H         1 UNK         0.0769 
    130 H130       32.7610    0.1667   -9.8027 H         1 UNK         0.2981 
    131 H131       34.7933   -0.6075   -7.8579 H         1 UNK         0.0541 
    132 H132       36.5701    1.9626  -10.3912 H         1 UNK         0.3459 
    133 H133       35.0983    1.1277  -10.8218 H         1 UNK         0.3459 
    134 H134       34.0552    1.4292   -6.6079 H         1 UNK         0.0612 
    135 H135       33.0129    1.8648   -7.9335 H         1 UNK         0.0612 
    136 H136       33.7309   -0.1926   -4.9185 H         1 UNK         0.0624 
    137 H137       33.5728   -1.6932   -5.8024 H         1 UNK         0.0624 
@<TRIPOS>BOND
     1    1    2 1    
     2    1   72 1    
     3    1   73 1    
     4    1   74 1    
     5    2    3 2    
     6    2    4 am   BACKBONE|DICT|INTERRES
     7    4    5 1    
     8    4   75 1    
     9    5    6 1    
    10    5   35 1    
    11    5   76 1    
    12    6    7 1    
    13    6   77 1    
    14    6   78 1    
    15    7    8 1    
    16    8    9 1    
    17    8   79 1    
    18    8   80 1    
    19    9   10 ar   
    20    9   14 ar   
    21   10   11 ar   
    22   10   81 1    
    23   11   12 ar   
    24   11   71 1    
    25   12   13 ar   
    26   12   82 1    
    27   13   14 ar   
    28   13   15 1    
    29   14   83 1    
    30   15   16 1    
    31   15   84 1    
    32   15   85 1    
    33   16   17 1    
    34   17   18 1    
    35   17   86 1    
    36   17   87 1    
    37   18   19 1    
    38   18   37 1    
    39   18   88 1    
    40   19   20 am   BACKBONE|DICT|INTERRES
    41   19   89 1    
    42   20   21 2    
    43   20   22 1    
    44   22   23 1    
    45   22   24 1    
    46   22   90 1    
    47   23   91 1    
    48   23   92 1    
    49   23   93 1    
    50   24   25 am   BACKBONE|DICT|INTERRES
    51   24   94 1    
    52   25   26 2    
    53   25   27 1    
    54   27   28 1    
    55   27   29 1    
    56   27   95 1    
    57   28   96 1    
    58   28   97 1    
    59   28   98 1    
    60   29   30 am   BACKBONE|DICT|INTERRES
    61   29   99 1    
    62   30   31 2    
    63   30   32 1    
    64   32   33 1    
    65   32   34 1    
    66   32  100 1    
    67   33  101 1    
    68   33  102 1    
    69   33  103 1    
    70   34   35 am   BACKBONE|DICT|INTERRES
    71   34  104 1    
    72   35   36 2    
    73   37   38 2    
    74   37   39 am   BACKBONE|DICT|INTERRES
    75   39   40 1    
    76   39  105 1    
    77   40   41 1    
    78   40   42 1    
    79   40  106 1    
    80   41  107 1    
    81   41  108 1    
    82   41  109 1    
    83   42   43 2    
    84   42   44 am   BACKBONE|DICT|INTERRES
    85   44   45 1    
    86   44  110 1    
    87   45   46 1    
    88   45   47 1    
    89   45  111 1    
    90   46  112 1    
    91   46  113 1    
    92   46  114 1    
    93   47   48 2    
    94   47   49 am   BACKBONE|DICT|INTERRES
    95   49   50 1    
    96   49  115 1    
    97   50   51 1    
    98   50   52 1    
    99   50  116 1    
   100   51  117 1    
   101   51  118 1    
   102   51  119 1    
   103   52   53 2    
   104   52   54 am   BACKBONE|DICT|INTERRES
   105   54   55 1    
   106   54  120 1    
   107   55   56 1    
   108   55   57 1    
   109   55  121 1    
   110   56  122 1    
   111   56  123 1    
   112   56  124 1    
   113   57   58 2    
   114   57   59 am   BACKBONE|DICT|INTERRES
   115   59   60 1    
   116   59  125 1    
   117   60   61 1    
   118   60   62 1    
   119   60  126 1    
   120   61  127 1    
   121   61  128 1    
   122   61  129 1    
   123   62   63 2    
   124   62   64 am   BACKBONE|DICT|INTERRES
   125   64   65 1    
   126   64  130 1    
   127   65   66 1    
   128   65   69 1    
   129   65  131 1    
   130   66   67 am   BACKBONE|DICT|INTERRES
   131   66   68 2    
   132   67  132 1    
   133   67  133 1    
   134   69   70 1    
   135   69  134 1    
   136   69  135 1    
   137   70   71 1    
   138   71  136 1    
   139   71  137 1    
@<TRIPOS>SUBSTRUCTURE
     1 UNK         1 GROUP             0       ****    0 ROOT    
