@<TRIPOS>MOLECULE
3R137
137   139    1
SMALL
USER_CHARGES


@<TRIPOS>ATOM
      1 CA         25.3400   -7.0961   -4.5097 C.3       0 UNK        -0.2020 
      2 C          25.8037   -6.2927   -3.3043 C.2       0 UNK         0.4855 
      3 O          25.0701   -6.1837   -2.3214 O.2       0 UNK        -0.5197 
      4 N          27.0122   -5.7185   -3.3731 N.am      1 UNK        -0.4892 
      5 CA         27.6217   -4.8857   -2.3289 C.3       1 UNK         0.0835 
      6 C6         29.1668   -4.8167   -2.5057 C.3       12 UNK        -0.0855 
      7 S7         30.1054   -4.8277   -0.9399 S.3       12 UNK        -0.2931 
      8 C8         29.9176   -3.1246   -0.2979 C.3       12 UNK         0.0378 
      9 C9         30.4656   -1.9840   -1.1608 C.ar      12 UNK        -0.0802 
     10 C10        31.3350   -2.1811   -2.2444 C.ar      12 UNK        -0.0944 
     11 C11        31.7708   -1.0974   -3.0147 C.ar      12 UNK        -0.0787 
     12 C12        31.3454    0.1918   -2.6874 C.ar      12 UNK        -0.0862 
     13 C13        30.4863    0.4096   -1.6096 C.ar      12 UNK        -0.0733 
     14 C14        30.0739   -0.6802   -0.8370 C.ar      12 UNK        -0.0832 
     15 C15        30.0192    1.8293   -1.3005 C.3       12 UNK         0.0240 
     16 S16        28.2137    2.0180   -1.0704 S.3       12 UNK        -0.2522 
     17 C17        27.4523    0.8494   -2.2489 C.3       12 UNK        -0.0967 
     18 CA         27.8308    1.0525   -3.7398 C.3       5 UNK         0.0660 
     19 N          27.7502   -0.2128   -4.4766 N.am      5 UNK        -0.4015 
     20 C          28.0454   -0.3965   -5.7708 C.2       4 UNK         0.4946 
     21 O          28.5067    0.4741   -6.5038 O.2       4 UNK        -0.5353 
     22 CA         27.7013   -1.7661   -6.3743 C.3       4 UNK         0.0277 
     23 CB         28.8356   -2.7766   -6.1478 C.3       4 UNK        -0.1981 
     24 N          26.4358   -2.2881   -5.8564 N.am      4 UNK        -0.4209 
     25 C          25.2352   -1.7774   -6.1698 C.2       3 UNK         0.4942 
     26 O          25.0728   -0.8469   -6.9593 O.2       3 UNK        -0.5208 
     27 CA         24.0160   -2.3783   -5.4496 C.3       3 UNK         0.0250 
     28 CB         23.5642   -3.6755   -6.1393 C.3       3 UNK        -0.1990 
     29 N          24.2714   -2.6388   -4.0308 N.am      3 UNK        -0.4232 
     30 C          24.5328   -1.6895   -3.1205 C.2       2 UNK         0.4993 
     31 O          24.5240   -0.4835   -3.3678 O.2       2 UNK        -0.5286 
     32 CA         24.9335   -2.1734   -1.7148 C.3       2 UNK         0.0209 
     33 CB         23.6875   -2.4061   -0.8465 C.3       2 UNK        -0.1931 
     34 N          25.7566   -3.3902   -1.7321 N.am      2 UNK        -0.4546 
     35 C          26.9523   -3.4938   -2.3285 C.2       1 UNK         0.5154 
     36 O          27.4757   -2.5588   -2.9345 O.2       1 UNK        -0.5181 
     37 C          26.9765    2.1593   -4.3901 C.2       5 UNK         0.5014 
     38 O          27.4646    3.2752   -4.5748 O.2       5 UNK        -0.5248 
     39 N          25.7287    1.8186   -4.7476 N.am      6 UNK        -0.4434 
     40 CA         24.7964    2.6967   -5.4558 C.3       6 UNK         0.0363 
     41 CB         23.3959    2.0633   -5.4580 C.3       6 UNK        -0.1936 
     42 C          25.2491    3.0269   -6.8892 C.2       6 UNK         0.5081 
     43 O          25.1302    4.1797   -7.3055 O.2       6 UNK        -0.5248 
     44 N          25.7539    2.0210   -7.6181 N.am      7 UNK        -0.4718 
     45 CA         26.2621    2.1685   -8.9859 C.3       7 UNK         0.0273 
     46 CB         26.4089    0.7797   -9.6265 C.3       7 UNK        -0.1935 
     47 C          27.5932    2.9363   -9.0666 C.2       7 UNK         0.5018 
     48 O          27.8123    3.6584  -10.0403 O.2       7 UNK        -0.5186 
     49 N          28.4656    2.7398   -8.0679 N.am      8 UNK        -0.4240 
     50 CA         29.8202    3.2770   -7.8831 C.3       8 UNK         0.0235 
     51 CB         29.8255    4.8166   -7.8237 C.3       8 UNK        -0.2000 
     52 C          30.8425    2.7423   -8.9000 C.2       8 UNK         0.4941 
     53 O          31.8850    2.2254   -8.4987 O.2       8 UNK        -0.5273 
     54 N          30.5204    2.8430  -10.1953 N.am      9 UNK        -0.4262 
     55 CA         31.3438    2.3860  -11.3195 C.3       9 UNK         0.0264 
     56 CB         30.7722    2.9712  -12.6213 C.3       9 UNK        -0.1955 
     57 C          31.4691    0.8538  -11.4276 C.2       9 UNK         0.5031 
     58 O          32.3631    0.3736  -12.1252 O.2       9 UNK        -0.5390 
     59 N          30.5746    0.1156  -10.7562 N.am      10 UNK        -0.4204 
     60 CA         30.5526   -1.3479  -10.7160 C.3       10 UNK         0.0237 
     61 CB         29.1864   -1.8089  -10.1872 C.3       10 UNK        -0.1985 
     62 C          31.6831   -1.9638   -9.8712 C.2       10 UNK         0.4970 
     63 O          32.0313   -3.1222  -10.1039 O.2       10 UNK        -0.4914 
     64 N          32.2168   -1.2073   -8.9030 N.am      11 UNK        -0.4285 
     65 CA         33.3228   -1.6282   -8.0317 C.3       11 UNK         0.1007 
     66 C          34.6622   -1.7699   -8.8053 C.2       11 UNK         0.5703 
     67 N          35.4750   -2.7604   -8.4626 N.am      11 UNK        -0.7361 
     68 O          34.9898   -0.9682   -9.6782 O.2       11 UNK        -0.4986 
     69 C69        33.4877   -0.6685   -6.8279 C.3       12 UNK        -0.0947 
     70 S70        32.0215   -0.6535   -5.7435 S.3       12 UNK        -0.2240 
     71 C71        32.7186   -1.3013   -4.1890 C.3       12 UNK         0.0194 
     72 H72        24.3638   -6.7452   -4.8431 H         1 UNK         0.0906 
     73 H73        26.0330   -7.0151   -5.3469 H         1 UNK         0.0906 
     74 H74        25.2492   -8.1489   -4.2439 H         1 UNK         0.0906 
     75 H75        27.5650   -5.8395   -4.2100 H         1 UNK         0.3140 
     76 H76        27.4095   -5.3560   -1.3658 H         1 UNK         0.1085 
     77 H77        29.5121   -5.7033   -3.0401 H         1 UNK         0.0836 
     78 H78        29.4883   -3.9855   -3.1312 H         1 UNK         0.0836 
     79 H79        30.4136   -3.0792    0.6725 H         1 UNK         0.0731 
     80 H80        28.8586   -2.9509   -0.1026 H         1 UNK         0.0731 
     81 H81        31.6740   -3.1753   -2.4974 H         1 UNK         0.1312 
     82 H82        31.6812    1.0277   -3.2861 H         1 UNK         0.1406 
     83 H83        29.4132   -0.5116    0.0029 H         1 UNK         0.1631 
     84 H84        30.3243    2.5113   -2.0957 H         1 UNK         0.0717 
     85 H85        30.5231    2.1752   -0.3973 H         1 UNK         0.0717 
     86 H86        26.3715    0.8973   -2.1074 H         1 UNK         0.0934 
     87 H87        27.7214   -0.1543   -1.9247 H         1 UNK         0.0934 
     88 H88        28.8727    1.3671   -3.8090 H         1 UNK         0.0739 
     89 H89        27.4637   -1.0276   -3.9381 H         1 UNK         0.3093 
     90 H90        27.5779   -1.6347   -7.4495 H         1 UNK         0.0818 
     91 H91        29.0814   -2.8779   -5.0919 H         1 UNK         0.0819 
     92 H92        28.5799   -3.7623   -6.5361 H         1 UNK         0.0819 
     93 H93        29.7434   -2.4540   -6.6591 H         1 UNK         0.0819 
     94 H94        26.4917   -3.0091   -5.1528 H         1 UNK         0.3041 
     95 H95        23.2022   -1.6527   -5.5153 H         1 UNK         0.0784 
     96 H96        23.3370   -3.4966   -7.1913 H         1 UNK         0.0793 
     97 H97        24.3338   -4.4471   -6.0998 H         1 UNK         0.0793 
     98 H98        22.6611   -4.0767   -5.6788 H         1 UNK         0.0793 
     99 H99        24.2886   -3.6031   -3.7320 H         1 UNK         0.3024 
    100 H100       25.5264   -1.3798   -1.2557 H         1 UNK         0.1171 
    101 H101       23.9603   -2.6537    0.1796 H         1 UNK         0.0786 
    102 H102       23.0662   -1.5101   -0.8074 H         1 UNK         0.0786 
    103 H103       23.0687   -3.2164   -1.2343 H         1 UNK         0.0786 
    104 H104       25.3450   -4.2335   -1.3492 H         1 UNK         0.2977 
    105 H105       25.3835    0.8968   -4.4925 H         1 UNK         0.3127 
    106 H106       24.7418    3.6365   -4.9022 H         1 UNK         0.0770 
    107 H107       23.3862    1.1047   -5.9780 H         1 UNK         0.0814 
    108 H108       22.6746    2.7126   -5.9558 H         1 UNK         0.0814 
    109 H109       23.0356    1.8948   -4.4429 H         1 UNK         0.0814 
    110 H110       25.7582    1.0853   -7.2239 H         1 UNK         0.2983 
    111 H111       25.5253    2.7324   -9.5622 H         1 UNK         0.0947 
    112 H112       26.7769    0.8548  -10.6508 H         1 UNK         0.0806 
    113 H113       25.4524    0.2577   -9.6626 H         1 UNK         0.0806 
    114 H114       27.1068    0.1548   -9.0699 H         1 UNK         0.0806 
    115 H115       28.2204    2.0275   -7.3800 H         1 UNK         0.3000 
    116 H116       30.1383    2.9132   -6.9042 H         1 UNK         0.0850 
    117 H117       30.8225    5.1918   -7.5892 H         1 UNK         0.0810 
    118 H118       29.1508    5.1815   -7.0489 H         1 UNK         0.0810 
    119 H119       29.5244    5.2677   -8.7694 H         1 UNK         0.0810 
    120 H120       29.6195    3.2630  -10.4150 H         1 UNK         0.3040 
    121 H121       32.3518    2.7816  -11.1784 H         1 UNK         0.0766 
    122 H122       30.7587    4.0609  -12.5943 H         1 UNK         0.0812 
    123 H123       29.7534    2.6271  -12.8046 H         1 UNK         0.0812 
    124 H124       31.3758    2.6778  -13.4815 H         1 UNK         0.0812 
    125 H125       29.8763    0.6010  -10.2136 H         1 UNK         0.3205 
    126 H126       30.6679   -1.7187  -11.7369 H         1 UNK         0.0754 
    127 H127       29.1227   -2.8976  -10.1568 H         1 UNK         0.0769 
    128 H128       28.3721   -1.4549  -10.8198 H         1 UNK         0.0769 
    129 H129       29.0159   -1.4431   -9.1759 H         1 UNK         0.0769 
    130 H130       31.9040   -0.2537   -8.7878 H         1 UNK         0.2981 
    131 H131       33.0636   -2.6134   -7.6379 H         1 UNK         0.0541 
    132 H132       35.2233   -3.4168   -7.7401 H         1 UNK         0.3459 
    133 H133       36.3561   -2.8583   -8.9425 H         1 UNK         0.3459 
    134 H134       34.3634   -0.9448   -6.2379 H         1 UNK         0.0612 
    135 H135       33.6663    0.3515   -7.1735 H         1 UNK         0.0612 
    136 H136       32.9593   -2.3571   -4.3218 H         1 UNK         0.0624 
    137 H137       33.6555   -0.7882   -3.9680 H         1 UNK         0.0624 
@<TRIPOS>BOND
     1    1    2 1    
     2    1   72 1    
     3    1   73 1    
     4    1   74 1    
     5    2    3 2    
     6    2    4 am   BACKBONE|DICT|INTERRES
     7    4    5 1    
     8    4   75 1    
     9    5    6 1    
    10    5   35 1    
    11    5   76 1    
    12    6    7 1    
    13    6   77 1    
    14    6   78 1    
    15    7    8 1    
    16    8    9 1    
    17    8   79 1    
    18    8   80 1    
    19    9   10 ar   
    20    9   14 ar   
    21   10   11 ar   
    22   10   81 1    
    23   11   12 ar   
    24   11   71 1    
    25   12   13 ar   
    26   12   82 1    
    27   13   14 ar   
    28   13   15 1    
    29   14   83 1    
    30   15   16 1    
    31   15   84 1    
    32   15   85 1    
    33   16   17 1    
    34   17   18 1    
    35   17   86 1    
    36   17   87 1    
    37   18   19 1    
    38   18   37 1    
    39   18   88 1    
    40   19   20 am   BACKBONE|DICT|INTERRES
    41   19   89 1    
    42   20   21 2    
    43   20   22 1    
    44   22   23 1    
    45   22   24 1    
    46   22   90 1    
    47   23   91 1    
    48   23   92 1    
    49   23   93 1    
    50   24   25 am   BACKBONE|DICT|INTERRES
    51   24   94 1    
    52   25   26 2    
    53   25   27 1    
    54   27   28 1    
    55   27   29 1    
    56   27   95 1    
    57   28   96 1    
    58   28   97 1    
    59   28   98 1    
    60   29   30 am   BACKBONE|DICT|INTERRES
    61   29   99 1    
    62   30   31 2    
    63   30   32 1    
    64   32   33 1    
    65   32   34 1    
    66   32  100 1    
    67   33  101 1    
    68   33  102 1    
    69   33  103 1    
    70   34   35 am   BACKBONE|DICT|INTERRES
    71   34  104 1    
    72   35   36 2    
    73   37   38 2    
    74   37   39 am   BACKBONE|DICT|INTERRES
    75   39   40 1    
    76   39  105 1    
    77   40   41 1    
    78   40   42 1    
    79   40  106 1    
    80   41  107 1    
    81   41  108 1    
    82   41  109 1    
    83   42   43 2    
    84   42   44 am   BACKBONE|DICT|INTERRES
    85   44   45 1    
    86   44  110 1    
    87   45   46 1    
    88   45   47 1    
    89   45  111 1    
    90   46  112 1    
    91   46  113 1    
    92   46  114 1    
    93   47   48 2    
    94   47   49 am   BACKBONE|DICT|INTERRES
    95   49   50 1    
    96   49  115 1    
    97   50   51 1    
    98   50   52 1    
    99   50  116 1    
   100   51  117 1    
   101   51  118 1    
   102   51  119 1    
   103   52   53 2    
   104   52   54 am   BACKBONE|DICT|INTERRES
   105   54   55 1    
   106   54  120 1    
   107   55   56 1    
   108   55   57 1    
   109   55  121 1    
   110   56  122 1    
   111   56  123 1    
   112   56  124 1    
   113   57   58 2    
   114   57   59 am   BACKBONE|DICT|INTERRES
   115   59   60 1    
   116   59  125 1    
   117   60   61 1    
   118   60   62 1    
   119   60  126 1    
   120   61  127 1    
   121   61  128 1    
   122   61  129 1    
   123   62   63 2    
   124   62   64 am   BACKBONE|DICT|INTERRES
   125   64   65 1    
   126   64  130 1    
   127   65   66 1    
   128   65   69 1    
   129   65  131 1    
   130   66   67 am   BACKBONE|DICT|INTERRES
   131   66   68 2    
   132   67  132 1    
   133   67  133 1    
   134   69   70 1    
   135   69  134 1    
   136   69  135 1    
   137   70   71 1    
   138   71  136 1    
   139   71  137 1    
@<TRIPOS>SUBSTRUCTURE
     1 UNK         1 GROUP             0       ****    0 ROOT    
