@<TRIPOS>MOLECULE
3R137
137   139    1
SMALL
USER_CHARGES


@<TRIPOS>ATOM
      1 CA         23.0838   -5.2257   -2.8202 C.3       0 UNK        -0.2020 
      2 C          24.2036   -4.4518   -2.1423 C.2       0 UNK         0.4855 
      3 O          23.9684   -3.3659   -1.6102 O.2       0 UNK        -0.5197 
      4 N          25.4220   -5.0083   -2.1543 N.am      1 UNK        -0.4892 
      5 CA         26.6151   -4.4131   -1.5431 C.3       1 UNK         0.0835 
      6 C6         27.7705   -5.4401   -1.4316 C.3       12 UNK        -0.0855 
      7 S7         28.9571   -5.0099   -0.1070 S.3       12 UNK        -0.2931 
      8 C8         30.5758   -5.2985   -0.8954 C.3       12 UNK         0.0378 
      9 C9         30.8812   -4.2846   -1.9893 C.ar      12 UNK        -0.0802 
     10 C10        31.3540   -3.0075   -1.6640 C.ar      12 UNK        -0.0944 
     11 C11        31.6262   -2.0696   -2.6680 C.ar      12 UNK        -0.0787 
     12 C12        31.4253   -2.4298   -4.0027 C.ar      12 UNK        -0.0862 
     13 C13        30.9528   -3.6989   -4.3401 C.ar      12 UNK        -0.0733 
     14 C14        30.6939   -4.6272   -3.3310 C.ar      12 UNK        -0.0832 
     15 C15        30.6832   -4.0508   -5.7935 C.3       12 UNK         0.0240 
     16 S16        28.9624   -3.6667   -6.2410 S.3       12 UNK        -0.2522 
     17 C17        28.9719   -1.8484   -6.1142 C.3       12 UNK        -0.0967 
     18 CA         27.7592   -1.2262   -6.8348 C.3       5 UNK         0.0660 
     19 N          26.5187   -1.4374   -6.0836 N.am      5 UNK        -0.4015 
     20 C          25.2917   -1.1655   -6.5483 C.2       4 UNK         0.4946 
     21 O          25.0688   -0.6656   -7.6512 O.2       4 UNK        -0.5353 
     22 CA         24.1162   -1.4952   -5.6190 C.3       4 UNK         0.0277 
     23 CB         23.8438   -3.0071   -5.5960 C.3       4 UNK        -0.1981 
     24 N          24.3549   -1.0052   -4.2611 N.am      4 UNK        -0.4209 
     25 C          24.2269    0.2803   -3.9018 C.2       3 UNK         0.4942 
     26 O          23.8069    1.1638   -4.6498 O.2       3 UNK        -0.5208 
     27 CA         24.6603    0.6543   -2.4739 C.3       3 UNK         0.0250 
     28 CB         23.5005    0.4522   -1.4858 C.3       3 UNK        -0.1990 
     29 N          25.8355   -0.0852   -2.0059 N.am      3 UNK        -0.4232 
     30 C          27.0514   -0.0245   -2.5688 C.2       2 UNK         0.4993 
     31 O          27.3178    0.6546   -3.5568 O.2       2 UNK        -0.5286 
     32 CA         28.1492   -0.9063   -1.9577 C.3       2 UNK         0.0209 
     33 CB         28.8325   -0.1777   -0.7897 C.3       2 UNK        -0.1931 
     34 N          27.6662   -2.2100   -1.5021 N.am      2 UNK        -0.4546 
     35 C          27.0459   -3.1186   -2.2667 C.2       1 UNK         0.5154 
     36 O          26.7967   -2.9547   -3.4665 O.2       1 UNK        -0.5181 
     37 C          28.0280    0.2510   -7.1792 C.2       5 UNK         0.5014 
     38 O          28.5400    0.5176   -8.2682 O.2       5 UNK        -0.5248 
     39 N          27.6776    1.1842   -6.2818 N.am      6 UNK        -0.4434 
     40 CA         27.8482    2.6310   -6.4593 C.3       6 UNK         0.0363 
     41 CB         27.4181    3.3662   -5.1801 C.3       6 UNK        -0.1936 
     42 C          27.1121    3.2154   -7.6766 C.2       6 UNK         0.5081 
     43 O          27.5880    4.1998   -8.2407 O.2       6 UNK        -0.5248 
     44 N          26.0029    2.5878   -8.0943 N.am      7 UNK        -0.4718 
     45 CA         25.2486    2.9603   -9.2963 C.3       7 UNK         0.0273 
     46 CB         23.9009    2.2221   -9.3019 C.3       7 UNK        -0.1935 
     47 C          26.0180    2.6922  -10.6040 C.2       7 UNK         0.5018 
     48 O          25.7806    3.3855  -11.5935 O.2       7 UNK        -0.5186 
     49 N          26.9288    1.7099  -10.5793 N.am      8 UNK        -0.4240 
     50 CA         27.8231    1.3571  -11.6845 C.3       8 UNK         0.0235 
     51 CB         27.8315   -0.1758  -11.8218 C.3       8 UNK        -0.2000 
     52 C          29.2568    1.8789  -11.4686 C.2       8 UNK         0.4941 
     53 O          30.0917    1.7007  -12.3560 O.2       8 UNK        -0.5273 
     54 N          29.5298    2.4644  -10.2903 N.am      9 UNK        -0.4262 
     55 CA         30.8466    2.8264   -9.7464 C.3       9 UNK         0.0264 
     56 CB         31.4940    3.9631  -10.5648 C.3       9 UNK        -0.1955 
     57 C          31.7789    1.6072   -9.5708 C.2       9 UNK         0.5031 
     58 O          33.0016    1.7466   -9.6472 O.2       9 UNK        -0.5390 
     59 N          31.1903    0.4275   -9.3234 N.am      10 UNK        -0.4204 
     60 CA         31.8779   -0.8671   -9.2912 C.3       10 UNK         0.0237 
     61 CB         30.8522   -1.9975   -9.4839 C.3       10 UNK        -0.1985 
     62 C          32.7658   -1.0953   -8.0537 C.2       10 UNK         0.4970 
     63 O          33.5403   -2.0527   -8.0515 O.2       10 UNK        -0.4914 
     64 N          32.6723   -0.2166   -7.0451 N.am      11 UNK        -0.4285 
     65 CA         33.6366   -0.1377   -5.9352 C.3       11 UNK         0.1007 
     66 C          35.0143    0.4715   -6.3428 C.2       11 UNK         0.5703 
     67 N          35.1464    1.1170   -7.4982 N.am      11 UNK        -0.7361 
     68 O          35.9874    0.3453   -5.6040 O.2       11 UNK        -0.4986 
     69 C69        33.0273    0.5809   -4.6963 C.3       12 UNK        -0.0947 
     70 S70        33.6143   -0.1292   -3.1149 S.3       12 UNK        -0.2240 
     71 C71        32.0680   -0.6549   -2.3008 C.3       12 UNK         0.0194 
     72 H72        23.4387   -5.7311   -3.7182 H         1 UNK         0.0906 
     73 H73        22.2735   -4.5561   -3.1069 H         1 UNK         0.0906 
     74 H74        22.6779   -5.9731   -2.1391 H         1 UNK         0.0906 
     75 H75        25.5633   -5.8825   -2.6402 H         1 UNK         0.3140 
     76 H76        26.3167   -4.1334   -0.5296 H         1 UNK         0.1085 
     77 H77        28.2728   -5.5679   -2.3904 H         1 UNK         0.0836 
     78 H78        27.3711   -6.4233   -1.1771 H         1 UNK         0.0836 
     79 H79        31.3517   -5.2463   -0.1302 H         1 UNK         0.0731 
     80 H80        30.6093   -6.3157   -1.2894 H         1 UNK         0.0731 
     81 H81        31.4894   -2.7409   -0.6248 H         1 UNK         0.1312 
     82 H82        31.6084   -1.7161   -4.7886 H         1 UNK         0.1406 
     83 H83        30.3264   -5.6100   -3.5932 H         1 UNK         0.1631 
     84 H84        30.8651   -5.1134   -5.9613 H         1 UNK         0.0717 
     85 H85        31.3672   -3.5158   -6.4543 H         1 UNK         0.0717 
     86 H86        28.9743   -1.5626   -5.0617 H         1 UNK         0.0934 
     87 H87        29.9122   -1.4838   -6.5300 H         1 UNK         0.0934 
     88 H88        27.6364   -1.7336   -7.7944 H         1 UNK         0.0739 
     89 H89        26.6130   -1.8851   -5.1763 H         1 UNK         0.3093 
     90 H90        23.2274   -1.0021   -6.0194 H         1 UNK         0.0818 
     91 H91        23.6903   -3.3909   -6.6055 H         1 UNK         0.0819 
     92 H92        24.6716   -3.5657   -5.1574 H         1 UNK         0.0819 
     93 H93        22.9425   -3.2319   -5.0272 H         1 UNK         0.0819 
     94 H94        24.7272   -1.6640   -3.5892 H         1 UNK         0.3041 
     95 H95        24.9227    1.7145   -2.4810 H         1 UNK         0.0784 
     96 H96        22.6170    1.0086   -1.8022 H         1 UNK         0.0793 
     97 H97        23.2143   -0.5977   -1.4081 H         1 UNK         0.0793 
     98 H98        23.7626    0.8041   -0.4878 H         1 UNK         0.0793 
     99 H99        25.7049   -0.6961   -1.2124 H         1 UNK         0.3024 
    100 H100       28.8922   -1.0888   -2.7354 H         1 UNK         0.1171 
    101 H101       29.2343    0.7842   -1.1116 H         1 UNK         0.0786 
    102 H102       28.1378    0.0173    0.0282 H         1 UNK         0.0786 
    103 H103       29.6639   -0.7580   -0.3900 H         1 UNK         0.0786 
    104 H104       27.8604   -2.4494   -0.5399 H         1 UNK         0.2977 
    105 H105       27.3391    0.8865   -5.3671 H         1 UNK         0.3127 
    106 H106       28.9135    2.8145   -6.6124 H         1 UNK         0.0770 
    107 H107       26.3863    3.1351   -4.9112 H         1 UNK         0.0814 
    108 H108       27.4919    4.4478   -5.3022 H         1 UNK         0.0814 
    109 H109       28.0534    3.0965   -4.3366 H         1 UNK         0.0814 
    110 H110       25.6878    1.7682   -7.5906 H         1 UNK         0.2983 
    111 H111       25.0502    4.0334   -9.2491 H         1 UNK         0.0947 
    112 H112       24.0325    1.1417   -9.3706 H         1 UNK         0.0806 
    113 H113       23.2919    2.5299  -10.1530 H         1 UNK         0.0806 
    114 H114       23.3269    2.4336   -8.3995 H         1 UNK         0.0806 
    115 H115       27.0664    1.2006   -9.7138 H         1 UNK         0.3000 
    116 H116       27.4590    1.7848  -12.6210 H         1 UNK         0.0850 
    117 H117       28.4728   -0.4949  -12.6446 H         1 UNK         0.0810 
    118 H118       26.8317   -0.5600  -12.0250 H         1 UNK         0.0810 
    119 H119       28.1976   -0.6597  -10.9152 H         1 UNK         0.0810 
    120 H120       28.7596    2.5676   -9.6437 H         1 UNK         0.3040 
    121 H121       30.6611    3.2093   -8.7419 H         1 UNK         0.0766 
    122 H122       31.7763    3.6331  -11.5649 H         1 UNK         0.0812 
    123 H123       32.3986    4.3291  -10.0778 H         1 UNK         0.0812 
    124 H124       30.8175    4.8113  -10.6688 H         1 UNK         0.0812 
    125 H125       30.1826    0.4176   -9.1781 H         1 UNK         0.3205 
    126 H126       32.5538   -0.8970  -10.1487 H         1 UNK         0.0754 
    127 H127       31.3204   -2.9791   -9.3983 H         1 UNK         0.0769 
    128 H128       30.3984   -1.9458  -10.4736 H         1 UNK         0.0769 
    129 H129       30.0479   -1.9545   -8.7534 H         1 UNK         0.0769 
    130 H130       32.0304    0.5551   -7.1397 H         1 UNK         0.2981 
    131 H131       33.8498   -1.1689   -5.6462 H         1 UNK         0.0541 
    132 H132       36.0470    1.4966   -7.7428 H         1 UNK         0.3459 
    133 H133       34.3659    1.2358   -8.1333 H         1 UNK         0.3459 
    134 H134       31.9384    0.5261   -4.7177 H         1 UNK         0.0612 
    135 H135       33.2535    1.6489   -4.7055 H         1 UNK         0.0612 
    136 H136       31.2692    0.0489   -2.5359 H         1 UNK         0.0624 
    137 H137       32.2240   -0.5820   -1.2235 H         1 UNK         0.0624 
@<TRIPOS>BOND
     1    1    2 1    
     2    1   72 1    
     3    1   73 1    
     4    1   74 1    
     5    2    3 2    
     6    2    4 am   BACKBONE|DICT|INTERRES
     7    4    5 1    
     8    4   75 1    
     9    5    6 1    
    10    5   35 1    
    11    5   76 1    
    12    6    7 1    
    13    6   77 1    
    14    6   78 1    
    15    7    8 1    
    16    8    9 1    
    17    8   79 1    
    18    8   80 1    
    19    9   10 ar   
    20    9   14 ar   
    21   10   11 ar   
    22   10   81 1    
    23   11   12 ar   
    24   11   71 1    
    25   12   13 ar   
    26   12   82 1    
    27   13   14 ar   
    28   13   15 1    
    29   14   83 1    
    30   15   16 1    
    31   15   84 1    
    32   15   85 1    
    33   16   17 1    
    34   17   18 1    
    35   17   86 1    
    36   17   87 1    
    37   18   19 1    
    38   18   37 1    
    39   18   88 1    
    40   19   20 am   BACKBONE|DICT|INTERRES
    41   19   89 1    
    42   20   21 2    
    43   20   22 1    
    44   22   23 1    
    45   22   24 1    
    46   22   90 1    
    47   23   91 1    
    48   23   92 1    
    49   23   93 1    
    50   24   25 am   BACKBONE|DICT|INTERRES
    51   24   94 1    
    52   25   26 2    
    53   25   27 1    
    54   27   28 1    
    55   27   29 1    
    56   27   95 1    
    57   28   96 1    
    58   28   97 1    
    59   28   98 1    
    60   29   30 am   BACKBONE|DICT|INTERRES
    61   29   99 1    
    62   30   31 2    
    63   30   32 1    
    64   32   33 1    
    65   32   34 1    
    66   32  100 1    
    67   33  101 1    
    68   33  102 1    
    69   33  103 1    
    70   34   35 am   BACKBONE|DICT|INTERRES
    71   34  104 1    
    72   35   36 2    
    73   37   38 2    
    74   37   39 am   BACKBONE|DICT|INTERRES
    75   39   40 1    
    76   39  105 1    
    77   40   41 1    
    78   40   42 1    
    79   40  106 1    
    80   41  107 1    
    81   41  108 1    
    82   41  109 1    
    83   42   43 2    
    84   42   44 am   BACKBONE|DICT|INTERRES
    85   44   45 1    
    86   44  110 1    
    87   45   46 1    
    88   45   47 1    
    89   45  111 1    
    90   46  112 1    
    91   46  113 1    
    92   46  114 1    
    93   47   48 2    
    94   47   49 am   BACKBONE|DICT|INTERRES
    95   49   50 1    
    96   49  115 1    
    97   50   51 1    
    98   50   52 1    
    99   50  116 1    
   100   51  117 1    
   101   51  118 1    
   102   51  119 1    
   103   52   53 2    
   104   52   54 am   BACKBONE|DICT|INTERRES
   105   54   55 1    
   106   54  120 1    
   107   55   56 1    
   108   55   57 1    
   109   55  121 1    
   110   56  122 1    
   111   56  123 1    
   112   56  124 1    
   113   57   58 2    
   114   57   59 am   BACKBONE|DICT|INTERRES
   115   59   60 1    
   116   59  125 1    
   117   60   61 1    
   118   60   62 1    
   119   60  126 1    
   120   61  127 1    
   121   61  128 1    
   122   61  129 1    
   123   62   63 2    
   124   62   64 am   BACKBONE|DICT|INTERRES
   125   64   65 1    
   126   64  130 1    
   127   65   66 1    
   128   65   69 1    
   129   65  131 1    
   130   66   67 am   BACKBONE|DICT|INTERRES
   131   66   68 2    
   132   67  132 1    
   133   67  133 1    
   134   69   70 1    
   135   69  134 1    
   136   69  135 1    
   137   70   71 1    
   138   71  136 1    
   139   71  137 1    
@<TRIPOS>SUBSTRUCTURE
     1 UNK         1 GROUP             0       ****    0 ROOT    
