@<TRIPOS>MOLECULE
3R137
137   139    1
SMALL
USER_CHARGES


@<TRIPOS>ATOM
      1 CA         28.8226    1.4317   -0.9832 C.3       0 UNK        -0.2020 
      2 C          28.6145   -0.0073   -1.4281 C.2       0 UNK         0.4855 
      3 O          28.3627   -0.2500   -2.6064 O.2       0 UNK        -0.5197 
      4 N          28.7096   -0.9651   -0.4968 N.am      1 UNK        -0.4892 
      5 CA         28.5195   -2.3986   -0.7405 C.3       1 UNK         0.0835 
      6 C6         29.3644   -3.2448    0.2503 C.3       12 UNK        -0.0855 
      7 S7         29.5832   -4.9747   -0.2971 S.3       12 UNK        -0.2931 
      8 C8         31.2360   -4.9308   -1.0658 C.3       12 UNK         0.0378 
      9 C9         31.2577   -4.0477   -2.3049 C.ar      12 UNK        -0.0802 
     10 C10        31.9393   -2.8266   -2.2923 C.ar      12 UNK        -0.0944 
     11 C11        31.9359   -1.9932   -3.4155 C.ar      12 UNK        -0.0787 
     12 C12        31.2302   -2.3958   -4.5553 C.ar      12 UNK        -0.0862 
     13 C13        30.5446   -3.6139   -4.5817 C.ar      12 UNK        -0.0733 
     14 C14        30.5740   -4.4428   -3.4581 C.ar      12 UNK        -0.0832 
     15 C15        29.7470   -4.0200   -5.8137 C.3       12 UNK         0.0240 
     16 S16        27.9539   -3.8162   -5.5553 S.3       12 UNK        -0.2522 
     17 C17        27.8224   -2.0161   -5.3015 C.3       12 UNK        -0.0967 
     18 CA         27.0534   -1.3045   -6.4326 C.3       5 UNK         0.0660 
     19 N          25.6365   -1.6677   -6.4470 N.am      5 UNK        -0.4015 
     20 C          24.8140   -1.5069   -7.4910 C.2       4 UNK         0.4946 
     21 O          25.1736   -1.0885   -8.5908 O.2       4 UNK        -0.5353 
     22 CA         23.3323   -1.8580   -7.2658 C.3       4 UNK         0.0277 
     23 CB         23.0739   -3.3363   -7.5987 C.3       4 UNK        -0.1981 
     24 N          22.8759   -1.5777   -5.9007 N.am      4 UNK        -0.4209 
     25 C          22.7513   -0.3465   -5.3839 C.2       3 UNK         0.4942 
     26 O          22.9692    0.6859   -6.0172 O.2       3 UNK        -0.5208 
     27 CA         22.3705   -0.2548   -3.8942 C.3       3 UNK         0.0250 
     28 CB         20.8466   -0.3508   -3.7186 C.3       3 UNK        -0.1990 
     29 N          23.0315   -1.2579   -3.0467 N.am      3 UNK        -0.4232 
     30 C          24.3596   -1.3893   -2.9263 C.2       2 UNK         0.4993 
     31 O          25.1675   -0.6992   -3.5502 O.2       2 UNK        -0.5286 
     32 CA         24.8763   -2.5000   -2.0060 C.3       2 UNK         0.0209 
     33 CB         24.6688   -3.8849   -2.6490 C.3       2 UNK        -0.1931 
     34 N          26.3014   -2.2812   -1.7680 N.am      2 UNK        -0.4546 
     35 C          27.0128   -2.7452   -0.7369 C.2       1 UNK         0.5154 
     36 O          26.5164   -3.3840    0.1937 O.2       1 UNK        -0.5181 
     37 C          27.2275    0.2215   -6.3286 C.2       5 UNK         0.5014 
     38 O          28.0475    0.7821   -7.0539 O.2       5 UNK        -0.5248 
     39 N          26.4352    0.8742   -5.4663 N.am      6 UNK        -0.4434 
     40 CA         26.3950    2.3299   -5.2985 C.3       6 UNK         0.0363 
     41 CB         25.4886    2.6786   -4.1080 C.3       6 UNK        -0.1936 
     42 C          25.9422    3.0745   -6.5685 C.2       6 UNK         0.5081 
     43 O          26.3995    4.1912   -6.8107 O.2       6 UNK        -0.5248 
     44 N          25.0788    2.4341   -7.3683 N.am      7 UNK        -0.4718 
     45 CA         24.6613    2.8930   -8.6951 C.3       7 UNK         0.0273 
     46 CB         23.3482    2.1858   -9.0699 C.3       7 UNK        -0.1935 
     47 C          25.7243    2.6733   -9.7925 C.2       7 UNK         0.5018 
     48 O          25.5714    3.2319  -10.8803 O.2       7 UNK        -0.5186 
     49 N          26.7578    1.8674   -9.5123 N.am      8 UNK        -0.4240 
     50 CA         27.8807    1.5765  -10.4035 C.3       8 UNK         0.0235 
     51 CB         28.1399    0.0548  -10.4020 C.3       8 UNK        -0.2000 
     52 C          29.1070    2.4150   -9.9905 C.2       8 UNK         0.4941 
     53 O          28.9470    3.5567   -9.5518 O.2       8 UNK        -0.5273 
     54 N          30.3129    1.8620  -10.1642 N.am      9 UNK        -0.4262 
     55 CA         31.5967    2.4968   -9.8760 C.3       9 UNK         0.0264 
     56 CB         31.9403    3.5110  -10.9883 C.3       9 UNK        -0.1955 
     57 C          32.6774    1.4123   -9.7589 C.2       9 UNK         0.5031 
     58 O          32.3933    0.2335   -9.9928 O.2       9 UNK        -0.5390 
     59 N          33.9000    1.8378   -9.4122 N.am      10 UNK        -0.4204 
     60 CA         35.1668    1.0887   -9.3645 C.3       10 UNK         0.0237 
     61 CB         35.5253    0.5103  -10.7483 C.3       10 UNK        -0.1985 
     62 C          35.2800    0.0054   -8.2752 C.2       10 UNK         0.4970 
     63 O          36.3802   -0.1834   -7.7547 O.2       10 UNK        -0.4914 
     64 N          34.1761   -0.6800   -7.9531 N.am      11 UNK        -0.4285 
     65 CA         34.0845   -1.7684   -6.9596 C.3       11 UNK         0.1007 
     66 C          34.8540   -3.0671   -7.3564 C.2       11 UNK         0.5703 
     67 N          35.1893   -3.2723   -8.6253 N.am      11 UNK        -0.7361 
     68 O          35.1257   -3.9206   -6.5152 O.2       11 UNK        -0.4986 
     69 C69        34.3977   -1.2965   -5.5067 C.3       12 UNK        -0.0947 
     70 S70        33.2580    0.0137   -4.9423 S.3       12 UNK        -0.2240 
     71 C71        32.6695   -0.6525   -3.3440 C.3       12 UNK         0.0194 
     72 H72        29.6657    1.8687   -1.5175 H         1 UNK         0.0906 
     73 H73        27.9349    2.0232   -1.2060 H         1 UNK         0.0906 
     74 H74        29.0218    1.5052    0.0857 H         1 UNK         0.0906 
     75 H75        28.8817   -0.7050    0.4643 H         1 UNK         0.3140 
     76 H76        28.8859   -2.6172   -1.7466 H         1 UNK         0.1085 
     77 H77        30.3539   -2.8001    0.3683 H         1 UNK         0.0836 
     78 H78        28.9238   -3.2408    1.2490 H         1 UNK         0.0836 
     79 H79        31.9698   -4.5957   -0.3309 H         1 UNK         0.0731 
     80 H80        31.5240   -5.9456   -1.3439 H         1 UNK         0.0731 
     81 H81        32.4637   -2.5162   -1.3988 H         1 UNK         0.1312 
     82 H82        31.1915   -1.7506   -5.4210 H         1 UNK         0.1406 
     83 H83        30.0338   -5.3802   -3.4681 H         1 UNK         0.1631 
     84 H84        29.9544   -5.0639   -6.0529 H         1 UNK         0.0717 
     85 H85        30.0536   -3.4392   -6.6852 H         1 UNK         0.0717 
     86 H86        27.3349   -1.8540   -4.3429 H         1 UNK         0.0934 
     87 H87        28.8142   -1.5803   -5.1965 H         1 UNK         0.0934 
     88 H88        27.4926   -1.6120   -7.3846 H         1 UNK         0.0739 
     89 H89        25.2500   -1.9778   -5.5683 H         1 UNK         0.3093 
     90 H90        22.7424   -1.2449   -7.9508 H         1 UNK         0.0818 
     91 H91        22.0145   -3.5815   -7.5222 H         1 UNK         0.0819 
     92 H92        23.3841   -3.5647   -8.6195 H         1 UNK         0.0819 
     93 H93        23.6237   -4.0044   -6.9345 H         1 UNK         0.0819 
     94 H94        22.6650   -2.3705   -5.3123 H         1 UNK         0.3041 
     95 H95        22.6895    0.7278   -3.5405 H         1 UNK         0.0784 
     96 H96        20.3363    0.3975   -4.3270 H         1 UNK         0.0793 
     97 H97        20.4640   -1.3281   -4.0154 H         1 UNK         0.0793 
     98 H98        20.5545   -0.1756   -2.6829 H         1 UNK         0.0793 
     99 H99        22.4284   -1.8667   -2.5116 H         1 UNK         0.3024 
    100 H100       24.3376   -2.4408   -1.0575 H         1 UNK         0.1171 
    101 H101       23.6140   -4.0795   -2.8460 H         1 UNK         0.0786 
    102 H102       25.0229   -4.6823   -1.9952 H         1 UNK         0.0786 
    103 H103       25.2026   -3.9725   -3.5965 H         1 UNK         0.0786 
    104 H104       26.7484   -1.6415   -2.4204 H         1 UNK         0.2977 
    105 H105       25.8470    0.3271   -4.8375 H         1 UNK         0.3127 
    106 H106       27.4093    2.6607   -5.0658 H         1 UNK         0.0770 
    107 H107       24.4585    2.3677   -4.2839 H         1 UNK         0.0814 
    108 H108       25.4799    3.7539   -3.9258 H         1 UNK         0.0814 
    109 H109       25.8330    2.1950   -3.1934 H         1 UNK         0.0814 
    110 H110       24.6848    1.5576   -7.0452 H         1 UNK         0.2983 
    111 H111       24.4685    3.9667   -8.6435 H         1 UNK         0.0947 
    112 H112       22.9772    2.5320  -10.0355 H         1 UNK         0.0806 
    113 H113       22.5678    2.3815   -8.3341 H         1 UNK         0.0806 
    114 H114       23.4795    1.1053   -9.1385 H         1 UNK         0.0806 
    115 H115       26.8527    1.5108   -8.5682 H         1 UNK         0.3000 
    116 H116       27.6285    1.8691  -11.4246 H         1 UNK         0.0850 
    117 H117       28.8504   -0.2302  -11.1787 H         1 UNK         0.0810 
    118 H118       27.2211   -0.4990  -10.5973 H         1 UNK         0.0810 
    119 H119       28.5337   -0.2922   -9.4463 H         1 UNK         0.0810 
    120 H120       30.3923    0.8977  -10.4651 H         1 UNK         0.3040 
    121 H121       31.5296    3.0104   -8.9145 H         1 UNK         0.0766 
    122 H122       32.8826    4.0223  -10.7900 H         1 UNK         0.0812 
    123 H123       31.1764    4.2836  -11.0756 H         1 UNK         0.0812 
    124 H124       32.0316    3.0233  -11.9597 H         1 UNK         0.0812 
    125 H125       33.9939    2.8198   -9.1903 H         1 UNK         0.3205 
    126 H126       35.9270    1.8337   -9.1231 H         1 UNK         0.0754 
    127 H127       36.5123    0.0456  -10.7329 H         1 UNK         0.0769 
    128 H128       35.5477    1.2900  -11.5097 H         1 UNK         0.0769 
    129 H129       34.8148   -0.2516  -11.0702 H         1 UNK         0.0769 
    130 H130       33.3376   -0.4877   -8.4934 H         1 UNK         0.2981 
    131 H131       33.0389   -2.0753   -6.9759 H         1 UNK         0.0541 
    132 H132       34.9595   -2.5920   -9.3313 H         1 UNK         0.3459 
    133 H133       35.6765   -4.1181   -8.8759 H         1 UNK         0.3459 
    134 H134       35.4204   -0.9275   -5.4244 H         1 UNK         0.0612 
    135 H135       34.3315   -2.1345   -4.8114 H         1 UNK         0.0612 
    136 H136       33.5295   -0.7352   -2.6776 H         1 UNK         0.0624 
    137 H137       31.9980    0.0798   -2.8940 H         1 UNK         0.0624 
@<TRIPOS>BOND
     1    1    2 1    
     2    1   72 1    
     3    1   73 1    
     4    1   74 1    
     5    2    3 2    
     6    2    4 am   BACKBONE|DICT|INTERRES
     7    4    5 1    
     8    4   75 1    
     9    5    6 1    
    10    5   35 1    
    11    5   76 1    
    12    6    7 1    
    13    6   77 1    
    14    6   78 1    
    15    7    8 1    
    16    8    9 1    
    17    8   79 1    
    18    8   80 1    
    19    9   10 ar   
    20    9   14 ar   
    21   10   11 ar   
    22   10   81 1    
    23   11   12 ar   
    24   11   71 1    
    25   12   13 ar   
    26   12   82 1    
    27   13   14 ar   
    28   13   15 1    
    29   14   83 1    
    30   15   16 1    
    31   15   84 1    
    32   15   85 1    
    33   16   17 1    
    34   17   18 1    
    35   17   86 1    
    36   17   87 1    
    37   18   19 1    
    38   18   37 1    
    39   18   88 1    
    40   19   20 am   BACKBONE|DICT|INTERRES
    41   19   89 1    
    42   20   21 2    
    43   20   22 1    
    44   22   23 1    
    45   22   24 1    
    46   22   90 1    
    47   23   91 1    
    48   23   92 1    
    49   23   93 1    
    50   24   25 am   BACKBONE|DICT|INTERRES
    51   24   94 1    
    52   25   26 2    
    53   25   27 1    
    54   27   28 1    
    55   27   29 1    
    56   27   95 1    
    57   28   96 1    
    58   28   97 1    
    59   28   98 1    
    60   29   30 am   BACKBONE|DICT|INTERRES
    61   29   99 1    
    62   30   31 2    
    63   30   32 1    
    64   32   33 1    
    65   32   34 1    
    66   32  100 1    
    67   33  101 1    
    68   33  102 1    
    69   33  103 1    
    70   34   35 am   BACKBONE|DICT|INTERRES
    71   34  104 1    
    72   35   36 2    
    73   37   38 2    
    74   37   39 am   BACKBONE|DICT|INTERRES
    75   39   40 1    
    76   39  105 1    
    77   40   41 1    
    78   40   42 1    
    79   40  106 1    
    80   41  107 1    
    81   41  108 1    
    82   41  109 1    
    83   42   43 2    
    84   42   44 am   BACKBONE|DICT|INTERRES
    85   44   45 1    
    86   44  110 1    
    87   45   46 1    
    88   45   47 1    
    89   45  111 1    
    90   46  112 1    
    91   46  113 1    
    92   46  114 1    
    93   47   48 2    
    94   47   49 am   BACKBONE|DICT|INTERRES
    95   49   50 1    
    96   49  115 1    
    97   50   51 1    
    98   50   52 1    
    99   50  116 1    
   100   51  117 1    
   101   51  118 1    
   102   51  119 1    
   103   52   53 2    
   104   52   54 am   BACKBONE|DICT|INTERRES
   105   54   55 1    
   106   54  120 1    
   107   55   56 1    
   108   55   57 1    
   109   55  121 1    
   110   56  122 1    
   111   56  123 1    
   112   56  124 1    
   113   57   58 2    
   114   57   59 am   BACKBONE|DICT|INTERRES
   115   59   60 1    
   116   59  125 1    
   117   60   61 1    
   118   60   62 1    
   119   60  126 1    
   120   61  127 1    
   121   61  128 1    
   122   61  129 1    
   123   62   63 2    
   124   62   64 am   BACKBONE|DICT|INTERRES
   125   64   65 1    
   126   64  130 1    
   127   65   66 1    
   128   65   69 1    
   129   65  131 1    
   130   66   67 am   BACKBONE|DICT|INTERRES
   131   66   68 2    
   132   67  132 1    
   133   67  133 1    
   134   69   70 1    
   135   69  134 1    
   136   69  135 1    
   137   70   71 1    
   138   71  136 1    
   139   71  137 1    
@<TRIPOS>SUBSTRUCTURE
     1 UNK         1 GROUP             0       ****    0 ROOT    
