@<TRIPOS>MOLECULE
3R137
137   139    1
SMALL
USER_CHARGES


@<TRIPOS>ATOM
      1 CA         29.5983   -4.9847   -2.2946 C.3       0 UNK        -0.2020 
      2 C          28.8996   -3.9600   -1.4142 C.2       0 UNK         0.4855 
      3 O          28.4214   -4.3036   -0.3335 O.2       0 UNK        -0.5197 
      4 N          28.8340   -2.7034   -1.8709 N.am      1 UNK        -0.4892 
      5 CA         28.2420   -1.5666   -1.1497 C.3       1 UNK         0.0835 
      6 C6         28.6901   -0.2165   -1.7677 C.3       12 UNK        -0.0855 
      7 S7         30.4733    0.0931   -1.5302 S.3       12 UNK        -0.2931 
      8 C8         31.0823    0.2785   -3.2359 C.3       12 UNK         0.0378 
      9 C9         31.2966   -1.0662   -3.9132 C.ar      12 UNK        -0.0802 
     10 C10        32.4242   -1.8320   -3.6059 C.ar      12 UNK        -0.0944 
     11 C11        32.6631   -3.0396   -4.2676 C.ar      12 UNK        -0.0787 
     12 C12        31.7394   -3.5040   -5.2072 C.ar      12 UNK        -0.0862 
     13 C13        30.6070   -2.7481   -5.5229 C.ar      12 UNK        -0.0733 
     14 C14        30.4009   -1.5225   -4.8822 C.ar      12 UNK        -0.0832 
     15 C15        29.6490   -3.2343   -6.6008 C.3       12 UNK         0.0240 
     16 S16        28.2094   -4.1096   -5.9148 S.3       12 UNK        -0.2522 
     17 C17        27.1580   -2.7472   -5.3199 C.3       12 UNK        -0.0967 
     18 CA         26.5950   -1.8575   -6.4665 C.3       5 UNK         0.0660 
     19 N          25.1326   -1.8369   -6.4786 N.am      5 UNK        -0.4015 
     20 C          24.3760   -1.3964   -7.4916 C.2       4 UNK         0.4946 
     21 O          24.8322   -0.9975   -8.5631 O.2       4 UNK        -0.5353 
     22 CA         22.8551   -1.3729   -7.2551 C.3       4 UNK         0.0277 
     23 CB         22.2217   -2.7007   -7.6995 C.3       4 UNK        -0.1981 
     24 N          22.4992   -1.1029   -5.8571 N.am      4 UNK        -0.4209 
     25 C          22.6820    0.0804   -5.2537 C.2       3 UNK         0.4942 
     26 O          23.1296    1.0752   -5.8247 O.2       3 UNK        -0.5208 
     27 CA         22.3684    0.1477   -3.7466 C.3       3 UNK         0.0250 
     28 CB         20.8549    0.2812   -3.5128 C.3       3 UNK        -0.1990 
     29 N          22.8961   -0.9774   -2.9573 N.am      3 UNK        -0.4232 
     30 C          24.1815   -1.3569   -2.9350 C.2       2 UNK         0.4993 
     31 O          25.0427   -0.8645   -3.6645 O.2       2 UNK        -0.5286 
     32 CA         24.5784   -2.4954   -1.9787 C.3       2 UNK         0.0209 
     33 CB         24.1320   -3.8583   -2.5345 C.3       2 UNK        -0.1931 
     34 N          26.0335   -2.5096   -1.7817 N.am      2 UNK        -0.4546 
     35 C          26.6991   -1.6158   -1.0355 C.2       1 UNK         0.5154 
     36 O          26.1335   -0.8195   -0.2833 O.2       1 UNK        -0.5181 
     37 C          27.1560   -0.4241   -6.4033 C.2       5 UNK         0.5014 
     38 O          28.0717   -0.0933   -7.1545 O.2       5 UNK        -0.5248 
     39 N          26.5907    0.4064   -5.5188 N.am      6 UNK        -0.4434 
     40 CA         26.9134    1.8252   -5.3665 C.3       6 UNK         0.0363 
     41 CB         26.1832    2.3829   -4.1351 C.3       6 UNK        -0.1936 
     42 C          26.5840    2.6494   -6.6231 C.2       6 UNK         0.5081 
     43 O          27.3298    3.5736   -6.9450 O.2       6 UNK        -0.5248 
     44 N          25.5030    2.2823   -7.3278 N.am      7 UNK        -0.4718 
     45 CA         25.1384    2.8408   -8.6324 C.3       7 UNK         0.0273 
     46 CB         23.7080    2.4157   -8.9999 C.3       7 UNK        -0.1935 
     47 C          26.1312    2.4535   -9.7443 C.2       7 UNK         0.5018 
     48 O          26.4446    3.2970  -10.5853 O.2       7 UNK        -0.5186 
     49 N          26.6199    1.2032   -9.7239 N.am      8 UNK        -0.4240 
     50 CA         27.6742    0.7112  -10.6190 C.3       8 UNK         0.0235 
     51 CB         27.7433   -0.8235  -10.5496 C.3       8 UNK        -0.2000 
     52 C          29.0496    1.3368  -10.3180 C.2       8 UNK         0.4941 
     53 O          29.7992    1.6158  -11.2543 O.2       8 UNK        -0.5273 
     54 N          29.3330    1.5607   -9.0260 N.am      9 UNK        -0.4262 
     55 CA         30.5130    2.2222   -8.4587 C.3       9 UNK         0.0264 
     56 CB         30.5589    3.7089   -8.8720 C.3       9 UNK        -0.1955 
     57 C          31.8259    1.4698   -8.7476 C.2       9 UNK         0.5031 
     58 O          32.8148    2.0808   -9.1611 O.2       9 UNK        -0.5390 
     59 N          31.8114    0.1501   -8.5191 N.am      10 UNK        -0.4204 
     60 CA         32.9891   -0.7177   -8.6087 C.3       10 UNK         0.0237 
     61 CB         32.5274   -2.1702   -8.8120 C.3       10 UNK        -0.1985 
     62 C          33.8964   -0.5861   -7.3683 C.2       10 UNK         0.4970 
     63 O          33.5202    0.0592   -6.3874 O.2       10 UNK        -0.4914 
     64 N          35.0825   -1.2039   -7.4518 N.am      11 UNK        -0.4285 
     65 CA         36.1411   -1.2182   -6.4219 C.3       11 UNK         0.1007 
     66 C          36.8275    0.1606   -6.1683 C.2       11 UNK         0.5703 
     67 N          36.6440    1.1626   -7.0204 N.am      11 UNK        -0.7361 
     68 O          37.5739    0.3185   -5.2047 O.2       11 UNK        -0.4986 
     69 C69        35.7186   -1.9233   -5.0977 C.3       12 UNK        -0.0947 
     70 S70        35.1462   -3.6405   -5.3422 S.3       12 UNK        -0.2240 
     71 C71        33.9328   -3.8305   -3.9944 C.3       12 UNK         0.0194 
     72 H72        28.9306   -5.8202   -2.5028 H         1 UNK         0.0906 
     73 H73        29.9090   -4.5579   -3.2472 H         1 UNK         0.0906 
     74 H74        30.4843   -5.3709   -1.7916 H         1 UNK         0.0906 
     75 H75        29.3044   -2.4715   -2.7347 H         1 UNK         0.3140 
     76 H76        28.6113   -1.6043   -0.1222 H         1 UNK         0.1085 
     77 H77        28.4298   -0.1714   -2.8268 H         1 UNK         0.0836 
     78 H78        28.1667    0.6193   -1.2983 H         1 UNK         0.0836 
     79 H79        30.3976    0.9055   -3.8096 H         1 UNK         0.0731 
     80 H80        32.0312    0.8166   -3.2115 H         1 UNK         0.0731 
     81 H81        33.1323   -1.4682   -2.8741 H         1 UNK         0.1312 
     82 H82        31.9235   -4.4395   -5.7179 H         1 UNK         0.1406 
     83 H83        29.5565   -0.9075   -5.1476 H         1 UNK         0.1631 
     84 H84        29.3322   -2.4040   -7.2306 H         1 UNK         0.0717 
     85 H85        30.1658   -3.9244   -7.2691 H         1 UNK         0.0717 
     86 H86        26.3443   -3.2211   -4.7721 H         1 UNK         0.0934 
     87 H87        27.6944   -2.1790   -4.5597 H         1 UNK         0.0934 
     88 H88        26.9022   -2.2718   -7.4293 H         1 UNK         0.0739 
     89 H89        24.6760   -2.0629   -5.6077 H         1 UNK         0.3093 
     90 H90        22.4389   -0.5735   -7.8721 H         1 UNK         0.0818 
     91 H91        21.1354   -2.6710   -7.6125 H         1 UNK         0.0819 
     92 H92        22.4550   -2.9123   -8.7441 H         1 UNK         0.0819 
     93 H93        22.5842   -3.5425   -7.1081 H         1 UNK         0.0819 
     94 H94        22.1177   -1.8674   -5.3187 H         1 UNK         0.3041 
     95 H95        22.8469    1.0523   -3.3651 H         1 UNK         0.0784 
     96 H96        20.4444    1.1180   -4.0802 H         1 UNK         0.0793 
     97 H97        20.3155   -0.6159   -3.8188 H         1 UNK         0.0793 
     98 H98        20.6304    0.4660   -2.4620 H         1 UNK         0.0793 
     99 H99        22.2414   -1.4423   -2.3442 H         1 UNK         0.3024 
    100 H100       24.0920   -2.3247   -1.0154 H         1 UNK         0.1171 
    101 H101       24.4254   -4.6702   -1.8684 H         1 UNK         0.0786 
    102 H102       23.0471   -3.9055   -2.6360 H         1 UNK         0.0786 
    103 H103       24.5582   -4.0633   -3.5163 H         1 UNK         0.0786 
    104 H104       26.5733   -3.1289   -2.3661 H         1 UNK         0.2977 
    105 H105       25.8862    0.0261   -4.8838 H         1 UNK         0.3127 
    106 H106       27.9888    1.9033   -5.1925 H         1 UNK         0.0770 
    107 H107       25.1003    2.3164   -4.2457 H         1 UNK         0.0814 
    108 H108       26.4327    3.4326   -3.9755 H         1 UNK         0.0814 
    109 H109       26.4595    1.8407   -3.2305 H         1 UNK         0.0814 
    110 H110       24.8933    1.5685   -6.9443 H         1 UNK         0.2983 
    111 H111       25.1542    3.9294   -8.5435 H         1 UNK         0.0947 
    112 H112       23.3973    2.8699   -9.9416 H         1 UNK         0.0806 
    113 H113       22.9933    2.7269   -8.2377 H         1 UNK         0.0806 
    114 H114       23.6227    1.3356   -9.1166 H         1 UNK         0.0806 
    115 H115       26.2586    0.5510   -9.0369 H         1 UNK         0.3000 
    116 H116       27.4021    0.9901  -11.6393 H         1 UNK         0.0850 
    117 H117       28.4849   -1.2109  -11.2494 H         1 UNK         0.0810 
    118 H118       26.7852   -1.2749  -10.8083 H         1 UNK         0.0810 
    119 H119       28.0195   -1.1760   -9.5562 H         1 UNK         0.0810 
    120 H120       28.6815    1.1815   -8.3410 H         1 UNK         0.3040 
    121 H121       30.3802    2.1912   -7.3760 H         1 UNK         0.0766 
    122 H122       29.6271    4.2164   -8.6214 H         1 UNK         0.0812 
    123 H123       30.7286    3.8276   -9.9425 H         1 UNK         0.0812 
    124 H124       31.3631    4.2334   -8.3547 H         1 UNK         0.0812 
    125 H125       30.9689   -0.2599   -8.1437 H         1 UNK         0.3205 
    126 H126       33.5696   -0.4189   -9.4843 H         1 UNK         0.0754 
    127 H127       33.3694   -2.8251   -9.0384 H         1 UNK         0.0769 
    128 H128       31.8229   -2.2555   -9.6398 H         1 UNK         0.0769 
    129 H129       32.0488   -2.5636   -7.9185 H         1 UNK         0.0769 
    130 H130       35.3075   -1.7020   -8.3003 H         1 UNK         0.2981 
    131 H131       36.9360   -1.8258   -6.8552 H         1 UNK         0.0541 
    132 H132       36.0360    1.0543   -7.8159 H         1 UNK         0.3459 
    133 H133       37.1042    2.0431   -6.8516 H         1 UNK         0.3459 
    134 H134       34.9474   -1.3407   -4.5955 H         1 UNK         0.0612 
    135 H135       36.5585   -1.9693   -4.4027 H         1 UNK         0.0612 
    136 H136       34.3878   -3.5262   -3.0505 H         1 UNK         0.0624 
    137 H137       33.6845   -4.8875   -3.8896 H         1 UNK         0.0624 
@<TRIPOS>BOND
     1    1    2 1    
     2    1   72 1    
     3    1   73 1    
     4    1   74 1    
     5    2    3 2    
     6    2    4 am   BACKBONE|DICT|INTERRES
     7    4    5 1    
     8    4   75 1    
     9    5    6 1    
    10    5   35 1    
    11    5   76 1    
    12    6    7 1    
    13    6   77 1    
    14    6   78 1    
    15    7    8 1    
    16    8    9 1    
    17    8   79 1    
    18    8   80 1    
    19    9   10 ar   
    20    9   14 ar   
    21   10   11 ar   
    22   10   81 1    
    23   11   12 ar   
    24   11   71 1    
    25   12   13 ar   
    26   12   82 1    
    27   13   14 ar   
    28   13   15 1    
    29   14   83 1    
    30   15   16 1    
    31   15   84 1    
    32   15   85 1    
    33   16   17 1    
    34   17   18 1    
    35   17   86 1    
    36   17   87 1    
    37   18   19 1    
    38   18   37 1    
    39   18   88 1    
    40   19   20 am   BACKBONE|DICT|INTERRES
    41   19   89 1    
    42   20   21 2    
    43   20   22 1    
    44   22   23 1    
    45   22   24 1    
    46   22   90 1    
    47   23   91 1    
    48   23   92 1    
    49   23   93 1    
    50   24   25 am   BACKBONE|DICT|INTERRES
    51   24   94 1    
    52   25   26 2    
    53   25   27 1    
    54   27   28 1    
    55   27   29 1    
    56   27   95 1    
    57   28   96 1    
    58   28   97 1    
    59   28   98 1    
    60   29   30 am   BACKBONE|DICT|INTERRES
    61   29   99 1    
    62   30   31 2    
    63   30   32 1    
    64   32   33 1    
    65   32   34 1    
    66   32  100 1    
    67   33  101 1    
    68   33  102 1    
    69   33  103 1    
    70   34   35 am   BACKBONE|DICT|INTERRES
    71   34  104 1    
    72   35   36 2    
    73   37   38 2    
    74   37   39 am   BACKBONE|DICT|INTERRES
    75   39   40 1    
    76   39  105 1    
    77   40   41 1    
    78   40   42 1    
    79   40  106 1    
    80   41  107 1    
    81   41  108 1    
    82   41  109 1    
    83   42   43 2    
    84   42   44 am   BACKBONE|DICT|INTERRES
    85   44   45 1    
    86   44  110 1    
    87   45   46 1    
    88   45   47 1    
    89   45  111 1    
    90   46  112 1    
    91   46  113 1    
    92   46  114 1    
    93   47   48 2    
    94   47   49 am   BACKBONE|DICT|INTERRES
    95   49   50 1    
    96   49  115 1    
    97   50   51 1    
    98   50   52 1    
    99   50  116 1    
   100   51  117 1    
   101   51  118 1    
   102   51  119 1    
   103   52   53 2    
   104   52   54 am   BACKBONE|DICT|INTERRES
   105   54   55 1    
   106   54  120 1    
   107   55   56 1    
   108   55   57 1    
   109   55  121 1    
   110   56  122 1    
   111   56  123 1    
   112   56  124 1    
   113   57   58 2    
   114   57   59 am   BACKBONE|DICT|INTERRES
   115   59   60 1    
   116   59  125 1    
   117   60   61 1    
   118   60   62 1    
   119   60  126 1    
   120   61  127 1    
   121   61  128 1    
   122   61  129 1    
   123   62   63 2    
   124   62   64 am   BACKBONE|DICT|INTERRES
   125   64   65 1    
   126   64  130 1    
   127   65   66 1    
   128   65   69 1    
   129   65  131 1    
   130   66   67 am   BACKBONE|DICT|INTERRES
   131   66   68 2    
   132   67  132 1    
   133   67  133 1    
   134   69   70 1    
   135   69  134 1    
   136   69  135 1    
   137   70   71 1    
   138   71  136 1    
   139   71  137 1    
@<TRIPOS>SUBSTRUCTURE
     1 UNK         1 GROUP             0       ****    0 ROOT    
