@<TRIPOS>MOLECULE
3R137
137   139    1
SMALL
USER_CHARGES


@<TRIPOS>ATOM
      1 CA         23.5461   -4.2414   -3.7560 C.3       0 UNK        -0.2020 
      2 C          24.7679   -3.6138   -3.1036 C.2       0 UNK         0.4855 
      3 O          25.2659   -2.6006   -3.6014 O.2       0 UNK        -0.5197 
      4 N          25.2530   -4.2073   -2.0034 N.am      1 UNK        -0.4892 
      5 CA         26.4044   -3.7580   -1.2103 C.3       1 UNK         0.0835 
      6 C6         27.7395   -3.9098   -1.9918 C.3       12 UNK        -0.0855 
      7 S7         29.2047   -3.8753   -0.9052 S.3       12 UNK        -0.2931 
      8 C8         30.4778   -4.5893   -1.9955 C.3       12 UNK         0.0378 
      9 C9         30.6468   -3.7793   -3.2729 C.ar      12 UNK        -0.0802 
     10 C10        31.2593   -2.5234   -3.2329 C.ar      12 UNK        -0.0944 
     11 C11        31.4042   -1.7695   -4.4004 C.ar      12 UNK        -0.0787 
     12 C12        30.9115   -2.2690   -5.6084 C.ar      12 UNK        -0.0862 
     13 C13        30.3028   -3.5260   -5.6651 C.ar      12 UNK        -0.0733 
     14 C14        30.1884   -4.2839   -4.4940 C.ar      12 UNK        -0.0832 
     15 C15        29.7967   -4.0529   -7.0047 C.3       12 UNK         0.0240 
     16 S16        28.1456   -4.8341   -6.9448 S.3       12 UNK        -0.2522 
     17 C17        27.1280   -3.6408   -6.0120 C.3       12 UNK        -0.0967 
     18 CA         26.5814   -2.4732   -6.8703 C.3       5 UNK         0.0660 
     19 N          25.2514   -2.0467   -6.4280 N.am      5 UNK        -0.4015 
     20 C          24.3897   -1.3683   -7.1984 C.2       4 UNK         0.4946 
     21 O          24.6088   -1.0844   -8.3763 O.2       4 UNK        -0.5353 
     22 CA         23.0584   -0.9184   -6.5660 C.3       4 UNK         0.0277 
     23 CB         21.9635   -1.9628   -6.8386 C.3       4 UNK        -0.1981 
     24 N          23.0976   -0.6280   -5.1277 N.am      4 UNK        -0.4209 
     25 C          23.9137    0.2455   -4.5216 C.2       3 UNK         0.4942 
     26 O          24.8143    0.8501   -5.1021 O.2       3 UNK        -0.5208 
     27 CA         23.7159    0.4837   -3.0188 C.3       3 UNK         0.0250 
     28 CB         22.5005   -0.2403   -2.4011 C.3       3 UNK        -0.1990 
     29 N          24.9322    0.0654   -2.3320 N.am      3 UNK        -0.4232 
     30 C          25.5175    0.7095   -1.3142 C.2       2 UNK         0.4993 
     31 O          25.0901    1.7649   -0.8424 O.2       2 UNK        -0.5286 
     32 CA         26.8020    0.0811   -0.7276 C.3       2 UNK         0.0209 
     33 CB         26.9628    0.3604    0.7824 C.3       2 UNK        -0.1931 
     34 N          26.9462   -1.3543   -1.0137 N.am      2 UNK        -0.4546 
     35 C          26.1293   -2.3496   -0.6325 C.2       1 UNK         0.5154 
     36 O          25.1554   -2.1947    0.1075 O.2       1 UNK        -0.5181 
     37 C          27.5506   -1.2756   -6.8924 C.2       5 UNK         0.5014 
     38 O          28.2506   -1.0771   -7.8837 O.2       5 UNK        -0.5248 
     39 N          27.5431   -0.4694   -5.8200 N.am      6 UNK        -0.4434 
     40 CA         28.3549    0.7455   -5.6933 C.3       6 UNK         0.0363 
     41 CB         28.3047    1.2478   -4.2428 C.3       6 UNK        -0.1936 
     42 C          27.9325    1.8489   -6.6797 C.2       6 UNK         0.5081 
     43 O          28.7833    2.5996   -7.1556 O.2       6 UNK        -0.5248 
     44 N          26.6375    1.8949   -7.0222 N.am      7 UNK        -0.4718 
     45 CA         26.0708    2.7431   -8.0754 C.3       7 UNK         0.0273 
     46 CB         24.5378    2.6497   -8.0307 C.3       7 UNK        -0.1935 
     47 C          26.5919    2.4102   -9.4880 C.2       7 UNK         0.5018 
     48 O          26.5467    3.2793  -10.3589 O.2       7 UNK        -0.5186 
     49 N          27.1071    1.1874   -9.6859 N.am      8 UNK        -0.4240 
     50 CA         27.7967    0.7483  -10.9015 C.3       8 UNK         0.0235 
     51 CB         27.4527   -0.7280  -11.1726 C.3       8 UNK        -0.2000 
     52 C          29.3220    0.9772  -10.8267 C.2       8 UNK         0.4941 
     53 O          30.0461    0.4346  -11.6630 O.2       8 UNK        -0.5273 
     54 N          29.7842    1.7781   -9.8529 N.am      9 UNK        -0.4262 
     55 CA         31.1721    2.1409   -9.5653 C.3       9 UNK         0.0264 
     56 CB         31.8411    2.8696  -10.7550 C.3       9 UNK        -0.1955 
     57 C          31.9587    0.9412   -9.0151 C.2       9 UNK         0.5031 
     58 O          31.7132    0.5468   -7.8747 O.2       9 UNK        -0.5390 
     59 N          32.9239    0.4262   -9.7904 N.am      10 UNK        -0.4204 
     60 CA         33.8894   -0.6404   -9.4764 C.3       10 UNK         0.0237 
     61 CB         33.1881   -1.9677   -9.1237 C.3       10 UNK        -0.1985 
     62 C          34.9284   -0.2530   -8.4060 C.2       10 UNK         0.4970 
     63 O          36.1196   -0.4799   -8.6202 O.2       10 UNK        -0.4914 
     64 N          34.4735    0.3419   -7.2981 N.am      11 UNK        -0.4285 
     65 CA         35.3087    0.8732   -6.2081 C.3       11 UNK         0.1007 
     66 C          36.0090    2.2253   -6.5347 C.2       11 UNK         0.5703 
     67 N          35.7001    2.8905   -7.6421 N.am      11 UNK        -0.7361 
     68 O          36.8600    2.6752   -5.7708 O.2       11 UNK        -0.4986 
     69 C69        34.5245    0.9598   -4.8715 C.3       12 UNK        -0.0947 
     70 S70        33.9170   -0.6703   -4.3275 S.3       12 UNK        -0.2240 
     71 C71        32.1151   -0.4276   -4.3657 C.3       12 UNK         0.0194 
     72 H72        23.7629   -4.4951   -4.7931 H         1 UNK         0.0906 
     73 H73        23.2336   -5.1515   -3.2446 H         1 UNK         0.0906 
     74 H74        22.7111   -3.5424   -3.7425 H         1 UNK         0.0906 
     75 H75        24.7710   -5.0144   -1.6313 H         1 UNK         0.3140 
     76 H76        26.4483   -4.4266   -0.3486 H         1 UNK         0.1085 
     77 H77        27.7422   -4.8696   -2.5111 H         1 UNK         0.0836 
     78 H78        27.8411   -3.1558   -2.7733 H         1 UNK         0.0836 
     79 H79        30.2182   -5.6248   -2.2215 H         1 UNK         0.0731 
     80 H80        31.4273   -4.6222   -1.4593 H         1 UNK         0.0731 
     81 H81        31.6304   -2.1363   -2.2936 H         1 UNK         0.1312 
     82 H82        31.0101   -1.6778   -6.5090 H         1 UNK         0.1406 
     83 H83        29.7233   -5.2595   -4.5322 H         1 UNK         0.1631 
     84 H84        30.5118   -4.7861   -7.3793 H         1 UNK         0.0717 
     85 H85        29.7711   -3.2538   -7.7465 H         1 UNK         0.0717 
     86 H86        26.2951   -4.2308   -5.6283 H         1 UNK         0.0934 
     87 H87        27.6510   -3.2877   -5.1233 H         1 UNK         0.0934 
     88 H88        26.4789   -2.8279   -7.8988 H         1 UNK         0.0739 
     89 H89        25.0264   -2.2099   -5.4505 H         1 UNK         0.3093 
     90 H90        22.7699    0.0087   -7.0648 H         1 UNK         0.0818 
     91 H91        20.9855   -1.6104   -6.5105 H         1 UNK         0.0819 
     92 H92        21.8850   -2.1766   -7.9057 H         1 UNK         0.0819 
     93 H93        22.1695   -2.9066   -6.3326 H         1 UNK         0.0819 
     94 H94        22.3952   -1.0804   -4.5618 H         1 UNK         0.3041 
     95 H95        23.5728    1.5598   -2.9003 H         1 UNK         0.0784 
     96 H96        21.5711    0.0429   -2.8971 H         1 UNK         0.0793 
     97 H97        22.5992   -1.3250   -2.4514 H         1 UNK         0.0793 
     98 H98        22.3892    0.0243   -1.3493 H         1 UNK         0.0793 
     99 H99        25.3396   -0.8015   -2.6681 H         1 UNK         0.3024 
    100 H100       27.6290    0.5773   -1.2373 H         1 UNK         0.1171 
    101 H101       27.0185    1.4318    0.9792 H         1 UNK         0.0786 
    102 H102       26.1243   -0.0306    1.3594 H         1 UNK         0.0786 
    103 H103       27.8770   -0.0861    1.1734 H         1 UNK         0.0786 
    104 H104       27.7303   -1.6056   -1.6001 H         1 UNK         0.2977 
    105 H105       26.8845   -0.6558   -5.0780 H         1 UNK         0.3127 
    106 H106       29.3886    0.4815   -5.9280 H         1 UNK         0.0770 
    107 H107       27.2891    1.5052   -3.9394 H         1 UNK         0.0814 
    108 H108       28.9184    2.1413   -4.1205 H         1 UNK         0.0814 
    109 H109       28.6879    0.4960   -3.5530 H         1 UNK         0.0814 
    110 H110       25.9852    1.3126   -6.5010 H         1 UNK         0.2983 
    111 H111       26.3585    3.7740   -7.8581 H         1 UNK         0.0947 
    112 H112       24.0844    3.3296   -8.7532 H         1 UNK         0.0806 
    113 H113       24.1502    2.9155   -7.0470 H         1 UNK         0.0806 
    114 H114       24.1908    1.6443   -8.2687 H         1 UNK         0.0806 
    115 H115       27.1342    0.5389   -8.9072 H         1 UNK         0.3000 
    116 H116       27.4336    1.3308  -11.7508 H         1 UNK         0.0850 
    117 H117       27.8341   -1.0455  -12.1438 H         1 UNK         0.0810 
    118 H118       26.3746   -0.8908  -11.1796 H         1 UNK         0.0810 
    119 H119       27.8863   -1.3907  -10.4241 H         1 UNK         0.0810 
    120 H120       29.1232    2.1075   -9.1579 H         1 UNK         0.3040 
    121 H121       31.1225    2.8586   -8.7448 H         1 UNK         0.0766 
    122 H122       31.9186    2.2471  -11.6463 H         1 UNK         0.0812 
    123 H123       32.8473    3.2014  -10.4952 H         1 UNK         0.0812 
    124 H124       31.2761    3.7605  -11.0295 H         1 UNK         0.0812 
    125 H125       33.0312    0.8385  -10.7070 H         1 UNK         0.3205 
    126 H126       34.4446   -0.8070  -10.4010 H         1 UNK         0.0754 
    127 H127       33.9136   -2.7771   -9.0340 H         1 UNK         0.0769 
    128 H128       32.4725   -2.2553   -9.8941 H         1 UNK         0.0769 
    129 H129       32.6542   -1.9101   -8.1758 H         1 UNK         0.0769 
    130 H130       33.4688    0.4740   -7.2158 H         1 UNK         0.2981 
    131 H131       36.1229    0.1625   -6.0539 H         1 UNK         0.0541 
    132 H132       35.0121    2.5284   -8.2806 H         1 UNK         0.3459 
    133 H133       36.1675    3.7612   -7.8402 H         1 UNK         0.3459 
    134 H134       35.1637    1.3444   -4.0746 H         1 UNK         0.0612 
    135 H135       33.6930    1.6613   -4.9592 H         1 UNK         0.0612 
    136 H136       31.8401    0.1665   -5.2376 H         1 UNK         0.0624 
    137 H137       31.8042    0.1424   -3.4891 H         1 UNK         0.0624 
@<TRIPOS>BOND
     1    1    2 1    
     2    1   72 1    
     3    1   73 1    
     4    1   74 1    
     5    2    3 2    
     6    2    4 am   BACKBONE|DICT|INTERRES
     7    4    5 1    
     8    4   75 1    
     9    5    6 1    
    10    5   35 1    
    11    5   76 1    
    12    6    7 1    
    13    6   77 1    
    14    6   78 1    
    15    7    8 1    
    16    8    9 1    
    17    8   79 1    
    18    8   80 1    
    19    9   10 ar   
    20    9   14 ar   
    21   10   11 ar   
    22   10   81 1    
    23   11   12 ar   
    24   11   71 1    
    25   12   13 ar   
    26   12   82 1    
    27   13   14 ar   
    28   13   15 1    
    29   14   83 1    
    30   15   16 1    
    31   15   84 1    
    32   15   85 1    
    33   16   17 1    
    34   17   18 1    
    35   17   86 1    
    36   17   87 1    
    37   18   19 1    
    38   18   37 1    
    39   18   88 1    
    40   19   20 am   BACKBONE|DICT|INTERRES
    41   19   89 1    
    42   20   21 2    
    43   20   22 1    
    44   22   23 1    
    45   22   24 1    
    46   22   90 1    
    47   23   91 1    
    48   23   92 1    
    49   23   93 1    
    50   24   25 am   BACKBONE|DICT|INTERRES
    51   24   94 1    
    52   25   26 2    
    53   25   27 1    
    54   27   28 1    
    55   27   29 1    
    56   27   95 1    
    57   28   96 1    
    58   28   97 1    
    59   28   98 1    
    60   29   30 am   BACKBONE|DICT|INTERRES
    61   29   99 1    
    62   30   31 2    
    63   30   32 1    
    64   32   33 1    
    65   32   34 1    
    66   32  100 1    
    67   33  101 1    
    68   33  102 1    
    69   33  103 1    
    70   34   35 am   BACKBONE|DICT|INTERRES
    71   34  104 1    
    72   35   36 2    
    73   37   38 2    
    74   37   39 am   BACKBONE|DICT|INTERRES
    75   39   40 1    
    76   39  105 1    
    77   40   41 1    
    78   40   42 1    
    79   40  106 1    
    80   41  107 1    
    81   41  108 1    
    82   41  109 1    
    83   42   43 2    
    84   42   44 am   BACKBONE|DICT|INTERRES
    85   44   45 1    
    86   44  110 1    
    87   45   46 1    
    88   45   47 1    
    89   45  111 1    
    90   46  112 1    
    91   46  113 1    
    92   46  114 1    
    93   47   48 2    
    94   47   49 am   BACKBONE|DICT|INTERRES
    95   49   50 1    
    96   49  115 1    
    97   50   51 1    
    98   50   52 1    
    99   50  116 1    
   100   51  117 1    
   101   51  118 1    
   102   51  119 1    
   103   52   53 2    
   104   52   54 am   BACKBONE|DICT|INTERRES
   105   54   55 1    
   106   54  120 1    
   107   55   56 1    
   108   55   57 1    
   109   55  121 1    
   110   56  122 1    
   111   56  123 1    
   112   56  124 1    
   113   57   58 2    
   114   57   59 am   BACKBONE|DICT|INTERRES
   115   59   60 1    
   116   59  125 1    
   117   60   61 1    
   118   60   62 1    
   119   60  126 1    
   120   61  127 1    
   121   61  128 1    
   122   61  129 1    
   123   62   63 2    
   124   62   64 am   BACKBONE|DICT|INTERRES
   125   64   65 1    
   126   64  130 1    
   127   65   66 1    
   128   65   69 1    
   129   65  131 1    
   130   66   67 am   BACKBONE|DICT|INTERRES
   131   66   68 2    
   132   67  132 1    
   133   67  133 1    
   134   69   70 1    
   135   69  134 1    
   136   69  135 1    
   137   70   71 1    
   138   71  136 1    
   139   71  137 1    
@<TRIPOS>SUBSTRUCTURE
     1 UNK         1 GROUP             0       ****    0 ROOT    
