@<TRIPOS>MOLECULE
3R137
137   139    1
SMALL
USER_CHARGES


@<TRIPOS>ATOM
      1 CA         26.7258   -5.7396   -1.8054 C.3       0 UNK        -0.2020 
      2 C          27.7010   -4.8257   -1.0806 C.2       0 UNK         0.4855 
      3 O          27.5278   -4.5749    0.1124 O.2       0 UNK        -0.5197 
      4 N          28.7382   -4.3465   -1.7797 N.am      1 UNK        -0.4892 
      5 CA         29.8345   -3.5596   -1.1958 C.3       1 UNK         0.0835 
      6 C6         31.1607   -3.6587   -2.0030 C.3       12 UNK        -0.0855 
      7 S7         31.4955   -5.3259   -2.6917 S.3       12 UNK        -0.2931 
      8 C8         31.6665   -5.0293   -4.4887 C.3       12 UNK         0.0378 
      9 C9         30.5480   -4.1678   -5.0618 C.ar      12 UNK        -0.0802 
     10 C10        30.8019   -2.8286   -5.3755 C.ar      12 UNK        -0.0944 
     11 C11        29.7756   -1.9949   -5.8215 C.ar      12 UNK        -0.0787 
     12 C12        28.4954   -2.5228   -5.9964 C.ar      12 UNK        -0.0862 
     13 C13        28.2327   -3.8681   -5.7236 C.ar      12 UNK        -0.0733 
     14 C14        29.2639   -4.6905   -5.2551 C.ar      12 UNK        -0.0832 
     15 C15        26.8219   -4.4043   -5.9115 C.3       12 UNK         0.0240 
     16 S16        25.7612   -3.8517   -4.5460 S.3       12 UNK        -0.2522 
     17 C17        24.0830   -4.1910   -5.1665 C.3       12 UNK        -0.0967 
     18 CA         23.3221   -2.9418   -5.6892 C.3       5 UNK         0.0660 
     19 N          23.4576   -1.7610   -4.8242 N.am      5 UNK        -0.4015 
     20 C          22.5412   -0.7836   -4.7475 C.2       4 UNK         0.4946 
     21 O          21.4824   -0.7894   -5.3776 O.2       4 UNK        -0.5353 
     22 CA         22.8320    0.3976   -3.8042 C.3       4 UNK         0.0277 
     23 CB         22.3824    0.0658   -2.3718 C.3       4 UNK        -0.1981 
     24 N          24.2352    0.8112   -3.7866 N.am      4 UNK        -0.4209 
     25 C          24.8985    1.3520   -4.8180 C.2       3 UNK         0.4942 
     26 O          24.3716    1.5920   -5.9047 O.2       3 UNK        -0.5208 
     27 CA         26.3887    1.7070   -4.6107 C.3       3 UNK         0.0250 
     28 CB         26.6177    3.2186   -4.7813 C.3       3 UNK        -0.1990 
     29 N          26.9785    1.2781   -3.3338 N.am      3 UNK        -0.4232 
     30 C          27.1465    0.0037   -2.9582 C.2       2 UNK         0.4993 
     31 O          26.6992   -0.9540   -3.5889 O.2       2 UNK        -0.5286 
     32 CA         27.8954   -0.2419   -1.6444 C.3       2 UNK         0.0209 
     33 CB         26.9683   -0.0350   -0.4323 C.3       2 UNK        -0.1931 
     34 N          28.3970   -1.6121   -1.6594 N.am      2 UNK        -0.4546 
     35 C          29.4423   -2.0824   -0.9683 C.2       1 UNK         0.5154 
     36 O          30.0970   -1.3994   -0.1788 O.2       1 UNK        -0.5181 
     37 C          23.6492   -2.6285   -7.1624 C.2       5 UNK         0.5014 
     38 O          22.9990   -3.1876   -8.0475 O.2       5 UNK        -0.5248 
     39 N          24.6184   -1.7388   -7.4081 N.am      6 UNK        -0.4434 
     40 CA         25.0140   -1.2604   -8.7299 C.3       6 UNK         0.0363 
     41 CB         25.7712   -2.3553   -9.5089 C.3       6 UNK        -0.1936 
     42 C          25.9169   -0.0420   -8.5441 C.2       6 UNK         0.5081 
     43 O          26.7424   -0.0401   -7.6316 O.2       6 UNK        -0.5248 
     44 N          25.8187    0.9393   -9.4468 N.am      7 UNK        -0.4718 
     45 CA         26.6933    2.1173   -9.4846 C.3       7 UNK         0.0273 
     46 CB         25.9295    3.2867  -10.1340 C.3       7 UNK        -0.1935 
     47 C          28.0266    1.8042  -10.1966 C.2       7 UNK         0.5018 
     48 O          28.4058    2.5043  -11.1378 O.2       7 UNK        -0.5186 
     49 N          28.6915    0.7260   -9.7634 N.am      8 UNK        -0.4240 
     50 CA         29.9603    0.2454  -10.3075 C.3       8 UNK         0.0235 
     51 CB         30.1574   -1.2243   -9.8995 C.3       8 UNK        -0.2000 
     52 C          31.1375    1.1114   -9.8343 C.2       8 UNK         0.4941 
     53 O          31.1027    1.6426   -8.7222 O.2       8 UNK        -0.5273 
     54 N          32.1830    1.1897  -10.6698 N.am      9 UNK        -0.4262 
     55 CA         33.3826    2.0192  -10.4803 C.3       9 UNK         0.0264 
     56 CB         34.2603    1.9199  -11.7395 C.3       9 UNK        -0.1955 
     57 C          34.2157    1.7121   -9.2197 C.2       9 UNK         0.5031 
     58 O          35.0382    2.5419   -8.8293 O.2       9 UNK        -0.5390 
     59 N          33.9915    0.5451   -8.6011 N.am      10 UNK        -0.4204 
     60 CA         34.5504    0.1625   -7.3032 C.3       10 UNK         0.0237 
     61 CB         34.2847   -1.3339   -7.0661 C.3       10 UNK        -0.1985 
     62 C          34.0027    0.9980   -6.1285 C.2       10 UNK         0.4970 
     63 O          34.6856    1.1028   -5.1087 O.2       10 UNK        -0.4914 
     64 N          32.7974    1.5609   -6.2809 N.am      11 UNK        -0.4285 
     65 CA         32.1293    2.4088   -5.2873 C.3       11 UNK         0.1007 
     66 C          32.3488    3.9118   -5.5993 C.2       11 UNK         0.5703 
     67 N          32.3232    4.7618   -4.5813 N.am      11 UNK        -0.7361 
     68 O          32.5114    4.3235   -6.7467 O.2       11 UNK        -0.4986 
     69 C69        30.6186    2.0740   -5.1954 C.3       12 UNK        -0.0947 
     70 S70        30.3334    0.3930   -4.5522 S.3       12 UNK        -0.2240 
     71 C71        30.0508   -0.5249   -6.0950 C.3       12 UNK         0.0194 
     72 H72        26.6293   -6.6842   -1.2710 H         1 UNK         0.0906 
     73 H73        25.7415   -5.2749   -1.8547 H         1 UNK         0.0906 
     74 H74        27.0535   -5.9607   -2.8209 H         1 UNK         0.0906 
     75 H75        28.8444   -4.5745   -2.7585 H         1 UNK         0.3140 
     76 H76        30.0377   -3.9762   -0.2063 H         1 UNK         0.1085 
     77 H77        31.9975   -3.3970   -1.3528 H         1 UNK         0.0836 
     78 H78        31.1869   -2.9139   -2.7961 H         1 UNK         0.0836 
     79 H79        31.6858   -5.9898   -5.0055 H         1 UNK         0.0731 
     80 H80        32.6373   -4.5671   -4.6753 H         1 UNK         0.0731 
     81 H81        31.7906   -2.4170   -5.2255 H         1 UNK         0.1312 
     82 H82        27.6891   -1.8823   -6.3193 H         1 UNK         0.1406 
     83 H83        29.0661   -5.7283   -5.0228 H         1 UNK         0.1631 
     84 H84        26.8189   -5.4942   -5.9577 H         1 UNK         0.0717 
     85 H85        26.4203   -4.0477   -6.8606 H         1 UNK         0.0717 
     86 H86        23.5243   -4.6138   -4.3302 H         1 UNK         0.0934 
     87 H87        24.1137   -4.9846   -5.9162 H         1 UNK         0.0934 
     88 H88        22.2655   -3.2202   -5.6850 H         1 UNK         0.0739 
     89 H89        24.3150   -1.6912   -4.2899 H         1 UNK         0.3093 
     90 H90        22.2435    1.2479   -4.1561 H         1 UNK         0.0818 
     91 H91        21.3313   -0.2260   -2.3509 H         1 UNK         0.0819 
     92 H92        22.9575   -0.7579   -1.9467 H         1 UNK         0.0819 
     93 H93        22.4899    0.9269   -1.7119 H         1 UNK         0.0819 
     94 H94        24.7537    0.6353   -2.9390 H         1 UNK         0.3041 
     95 H95        26.9434    1.1964   -5.3993 H         1 UNK         0.0784 
     96 H96        26.2451    3.5649   -5.7466 H         1 UNK         0.0793 
     97 H97        26.1058    3.7933   -4.0085 H         1 UNK         0.0793 
     98 H98        27.6781    3.4674   -4.7421 H         1 UNK         0.0793 
     99 H99        27.3432    2.0113   -2.7428 H         1 UNK         0.3024 
    100 H100       28.7414    0.4476   -1.5933 H         1 UNK         0.1171 
    101 H101       27.4989   -0.1998    0.5056 H         1 UNK         0.0786 
    102 H102       26.5744    0.9816   -0.4044 H         1 UNK         0.0786 
    103 H103       26.1174   -0.7172   -0.4576 H         1 UNK         0.0786 
    104 H104       27.9340   -2.2135   -2.3319 H         1 UNK         0.2977 
    105 H105       25.1113   -1.3003   -6.6396 H         1 UNK         0.3127 
    106 H106       24.1187   -0.9638   -9.2804 H         1 UNK         0.0770 
    107 H107       26.6637   -2.6834   -8.9743 H         1 UNK         0.0814 
    108 H108       26.0943   -1.9876  -10.4837 H         1 UNK         0.0814 
    109 H109       25.1477   -3.2307   -9.6886 H         1 UNK         0.0814 
    110 H110       25.1518    0.8486  -10.2003 H         1 UNK         0.2983 
    111 H111       26.9405    2.4134   -8.4620 H         1 UNK         0.0947 
    112 H112       25.6596    3.0695  -11.1682 H         1 UNK         0.0806 
    113 H113       26.5341    4.1947  -10.1374 H         1 UNK         0.0806 
    114 H114       25.0137    3.5130   -9.5874 H         1 UNK         0.0806 
    115 H115       28.3159    0.2409   -8.9564 H         1 UNK         0.3000 
    116 H116       29.9054    0.2974  -11.3973 H         1 UNK         0.0850 
    117 H117       31.0862   -1.6259  -10.3065 H         1 UNK         0.0810 
    118 H118       29.3463   -1.8493  -10.2741 H         1 UNK         0.0810 
    119 H119       30.1954   -1.3474   -8.8181 H         1 UNK         0.0810 
    120 H120       32.1284    0.6922  -11.5476 H         1 UNK         0.3040 
    121 H121       33.0435    3.0527  -10.3826 H         1 UNK         0.0766 
    122 H122       33.7207    2.2470  -12.6285 H         1 UNK         0.0812 
    123 H123       34.6064    0.8998  -11.9105 H         1 UNK         0.0812 
    124 H124       35.1448    2.5528  -11.6517 H         1 UNK         0.0812 
    125 H125       33.3096   -0.0779   -9.0070 H         1 UNK         0.3205 
    126 H126       35.6306    0.3188   -7.3400 H         1 UNK         0.0754 
    127 H127       34.6867   -1.6557   -6.1043 H         1 UNK         0.0769 
    128 H128       34.7575   -1.9470   -7.8337 H         1 UNK         0.0769 
    129 H129       33.2180   -1.5600   -7.0660 H         1 UNK         0.0769 
    130 H130       32.3219    1.4993   -7.1763 H         1 UNK         0.2981 
    131 H131       32.5674    2.2189   -4.3053 H         1 UNK         0.0541 
    132 H132       32.4522    5.7450   -4.7624 H         1 UNK         0.3459 
    133 H133       32.1820    4.4412   -3.6360 H         1 UNK         0.3459 
    134 H134       30.1160    2.7629   -4.5146 H         1 UNK         0.0612 
    135 H135       30.1282    2.1920   -6.1636 H         1 UNK         0.0612 
    136 H136       29.2210   -0.0687   -6.6357 H         1 UNK         0.0624 
    137 H137       30.9284   -0.4353   -6.7345 H         1 UNK         0.0624 
@<TRIPOS>BOND
     1    1    2 1    
     2    1   72 1    
     3    1   73 1    
     4    1   74 1    
     5    2    3 2    
     6    2    4 am   BACKBONE|DICT|INTERRES
     7    4    5 1    
     8    4   75 1    
     9    5    6 1    
    10    5   35 1    
    11    5   76 1    
    12    6    7 1    
    13    6   77 1    
    14    6   78 1    
    15    7    8 1    
    16    8    9 1    
    17    8   79 1    
    18    8   80 1    
    19    9   10 ar   
    20    9   14 ar   
    21   10   11 ar   
    22   10   81 1    
    23   11   12 ar   
    24   11   71 1    
    25   12   13 ar   
    26   12   82 1    
    27   13   14 ar   
    28   13   15 1    
    29   14   83 1    
    30   15   16 1    
    31   15   84 1    
    32   15   85 1    
    33   16   17 1    
    34   17   18 1    
    35   17   86 1    
    36   17   87 1    
    37   18   19 1    
    38   18   37 1    
    39   18   88 1    
    40   19   20 am   BACKBONE|DICT|INTERRES
    41   19   89 1    
    42   20   21 2    
    43   20   22 1    
    44   22   23 1    
    45   22   24 1    
    46   22   90 1    
    47   23   91 1    
    48   23   92 1    
    49   23   93 1    
    50   24   25 am   BACKBONE|DICT|INTERRES
    51   24   94 1    
    52   25   26 2    
    53   25   27 1    
    54   27   28 1    
    55   27   29 1    
    56   27   95 1    
    57   28   96 1    
    58   28   97 1    
    59   28   98 1    
    60   29   30 am   BACKBONE|DICT|INTERRES
    61   29   99 1    
    62   30   31 2    
    63   30   32 1    
    64   32   33 1    
    65   32   34 1    
    66   32  100 1    
    67   33  101 1    
    68   33  102 1    
    69   33  103 1    
    70   34   35 am   BACKBONE|DICT|INTERRES
    71   34  104 1    
    72   35   36 2    
    73   37   38 2    
    74   37   39 am   BACKBONE|DICT|INTERRES
    75   39   40 1    
    76   39  105 1    
    77   40   41 1    
    78   40   42 1    
    79   40  106 1    
    80   41  107 1    
    81   41  108 1    
    82   41  109 1    
    83   42   43 2    
    84   42   44 am   BACKBONE|DICT|INTERRES
    85   44   45 1    
    86   44  110 1    
    87   45   46 1    
    88   45   47 1    
    89   45  111 1    
    90   46  112 1    
    91   46  113 1    
    92   46  114 1    
    93   47   48 2    
    94   47   49 am   BACKBONE|DICT|INTERRES
    95   49   50 1    
    96   49  115 1    
    97   50   51 1    
    98   50   52 1    
    99   50  116 1    
   100   51  117 1    
   101   51  118 1    
   102   51  119 1    
   103   52   53 2    
   104   52   54 am   BACKBONE|DICT|INTERRES
   105   54   55 1    
   106   54  120 1    
   107   55   56 1    
   108   55   57 1    
   109   55  121 1    
   110   56  122 1    
   111   56  123 1    
   112   56  124 1    
   113   57   58 2    
   114   57   59 am   BACKBONE|DICT|INTERRES
   115   59   60 1    
   116   59  125 1    
   117   60   61 1    
   118   60   62 1    
   119   60  126 1    
   120   61  127 1    
   121   61  128 1    
   122   61  129 1    
   123   62   63 2    
   124   62   64 am   BACKBONE|DICT|INTERRES
   125   64   65 1    
   126   64  130 1    
   127   65   66 1    
   128   65   69 1    
   129   65  131 1    
   130   66   67 am   BACKBONE|DICT|INTERRES
   131   66   68 2    
   132   67  132 1    
   133   67  133 1    
   134   69   70 1    
   135   69  134 1    
   136   69  135 1    
   137   70   71 1    
   138   71  136 1    
   139   71  137 1    
@<TRIPOS>SUBSTRUCTURE
     1 UNK         1 GROUP             0       ****    0 ROOT    
