@<TRIPOS>MOLECULE
3R137
137   139    1
SMALL
USER_CHARGES


@<TRIPOS>ATOM
      1 CA         28.3269   -5.6421    0.2867 C.3       0 UNK        -0.2020 
      2 C          27.7269   -4.4197   -0.3900 C.2       0 UNK         0.4855 
      3 O          27.5077   -4.4434   -1.6010 O.2       0 UNK        -0.5197 
      4 N          27.4572   -3.3592    0.3849 N.am      1 UNK        -0.4892 
      5 CA         26.9101   -2.0471   -0.0066 C.3       1 UNK         0.0835 
      6 C6         27.7968   -1.2669   -1.0136 C.3       12 UNK        -0.0855 
      7 S7         29.3731   -0.7057   -0.2852 S.3       12 UNK        -0.2931 
      8 C8         30.5738   -1.9294   -0.9015 C.3       12 UNK         0.0378 
      9 C9         30.6674   -1.9548   -2.4212 C.ar      12 UNK        -0.0802 
     10 C10        31.1864   -0.8602   -3.1204 C.ar      12 UNK        -0.0944 
     11 C11        31.2888   -0.8967   -4.5144 C.ar      12 UNK        -0.0787 
     12 C12        30.8823   -2.0406   -5.2049 C.ar      12 UNK        -0.0862 
     13 C13        30.3451   -3.1339   -4.5204 C.ar      12 UNK        -0.0733 
     14 C14        30.2475   -3.0859   -3.1277 C.ar      12 UNK        -0.0832 
     15 C15        29.8869   -4.3766   -5.2738 C.3       12 UNK         0.0240 
     16 S16        28.7558   -4.0078   -6.6550 S.3       12 UNK        -0.2522 
     17 C17        27.2978   -3.3204   -5.7985 C.3       12 UNK        -0.0967 
     18 CA         26.7852   -2.0244   -6.4856 C.3       5 UNK         0.0660 
     19 N          25.3197   -1.9692   -6.4903 N.am      5 UNK        -0.4015 
     20 C          24.5566   -1.8183   -7.5827 C.2       4 UNK         0.4946 
     21 O          25.0072   -1.6665   -8.7190 O.2       4 UNK        -0.5353 
     22 CA         23.0262   -1.8735   -7.4044 C.3       4 UNK         0.0277 
     23 CB         22.4929   -3.2576   -7.8106 C.3       4 UNK        -0.1981 
     24 N          22.5791   -1.5737   -6.0432 N.am      4 UNK        -0.4209 
     25 C          22.5567   -0.3480   -5.5033 C.2       3 UNK         0.4942 
     26 O          22.8398    0.6772   -6.1227 O.2       3 UNK        -0.5208 
     27 CA         22.1727   -0.2444   -4.0144 C.3       3 UNK         0.0250 
     28 CB         20.6816    0.1018   -3.8715 C.3       3 UNK        -0.1990 
     29 N          22.4734   -1.4297   -3.1966 N.am      3 UNK        -0.4232 
     30 C          23.6803   -1.9965   -3.0643 C.2       2 UNK         0.4993 
     31 O          24.6643   -1.6770   -3.7353 O.2       2 UNK        -0.5286 
     32 CA         23.8123   -3.1382   -2.0460 C.3       2 UNK         0.0209 
     33 CB         23.7162   -4.4984   -2.7548 C.3       2 UNK        -0.1931 
     34 N          25.0967   -3.0533   -1.3501 N.am      2 UNK        -0.4546 
     35 C          25.4438   -2.0875   -0.4914 C.2       1 UNK         0.5154 
     36 O          24.6532   -1.2375   -0.0780 O.2       1 UNK        -0.5181 
     37 C          27.3932   -0.7535   -5.8587 C.2       5 UNK         0.5014 
     38 O          28.4628   -0.3272   -6.2946 O.2       5 UNK        -0.5248 
     39 N          26.7004   -0.1583   -4.8743 N.am      6 UNK        -0.4434 
     40 CA         27.0597    1.0668   -4.1543 C.3       6 UNK         0.0363 
     41 CB         25.8862    1.4666   -3.2409 C.3       6 UNK        -0.1936 
     42 C          27.4368    2.2295   -5.0919 C.2       6 UNK         0.5081 
     43 O          26.5572    2.8133   -5.7274 O.2       6 UNK        -0.5248 
     44 N          28.7445    2.5152   -5.1665 N.am      7 UNK        -0.4718 
     45 CA         29.3909    3.5227   -6.0189 C.3       7 UNK         0.0273 
     46 CB         28.9915    4.9476   -5.5786 C.3       7 UNK        -0.1935 
     47 C          29.2004    3.2905   -7.5347 C.2       7 UNK         0.5018 
     48 O          29.2510    4.2518   -8.3054 O.2       7 UNK        -0.5186 
     49 N          29.0004    2.0293   -7.9447 N.am      8 UNK        -0.4240 
     50 CA         28.9226    1.6122   -9.3469 C.3       8 UNK         0.0235 
     51 CB         28.2444    0.2315   -9.4183 C.3       8 UNK        -0.2000 
     52 C          30.3097    1.5776  -10.0143 C.2       8 UNK         0.4941 
     53 O          31.3330    1.7719   -9.3511 O.2       8 UNK        -0.5273 
     54 N          30.3256    1.2662  -11.3189 N.am      9 UNK        -0.4262 
     55 CA         31.5179    1.1497  -12.1734 C.3       9 UNK         0.0264 
     56 CB         31.0719    0.8355  -13.6112 C.3       9 UNK        -0.1955 
     57 C          32.5776    0.1297  -11.7044 C.2       9 UNK         0.5031 
     58 O          33.7179    0.1982  -12.1649 O.2       9 UNK        -0.5390 
     59 N          32.2021   -0.7720  -10.7859 N.am      10 UNK        -0.4204 
     60 CA         33.1066   -1.6518  -10.0427 C.3       10 UNK         0.0237 
     61 CB         32.2743   -2.6389   -9.2078 C.3       10 UNK        -0.1985 
     62 C          34.0983   -0.8854   -9.1436 C.2       10 UNK         0.4970 
     63 O          35.2192   -1.3621   -8.9599 O.2       10 UNK        -0.4914 
     64 N          33.6823    0.2781   -8.6244 N.am      11 UNK        -0.4285 
     65 CA         34.5345    1.2260   -7.8908 C.3       11 UNK         0.1007 
     66 C          34.8641    2.4742   -8.7506 C.2       11 UNK         0.5703 
     67 N          33.9370    2.9734   -9.5604 N.am      11 UNK        -0.7361 
     68 O          35.9765    2.9921   -8.6862 O.2       11 UNK        -0.4986 
     69 C69        33.9083    1.6604   -6.5410 C.3       12 UNK        -0.0947 
     70 S70        33.6257    0.2551   -5.4153 S.3       12 UNK        -0.2240 
     71 C71        31.8161    0.3016   -5.2840 C.3       12 UNK         0.0194 
     72 H72        29.2929   -5.8790   -0.1582 H         1 UNK         0.0906 
     73 H73        27.6712   -6.5024    0.1549 H         1 UNK         0.0906 
     74 H74        28.4745   -5.4879    1.3554 H         1 UNK         0.0906 
     75 H75        27.6441   -3.4408    1.3752 H         1 UNK         0.3140 
     76 H76        26.8853   -1.4648    0.9165 H         1 UNK         0.1085 
     77 H77        27.2868   -0.3597   -1.3373 H         1 UNK         0.0836 
     78 H78        27.9680   -1.8431   -1.9233 H         1 UNK         0.0836 
     79 H79        31.5563   -1.6912   -0.4917 H         1 UNK         0.0731 
     80 H80        30.3143   -2.9129   -0.5087 H         1 UNK         0.0731 
     81 H81        31.5066    0.0195   -2.5789 H         1 UNK         0.1312 
     82 H82        30.9556   -2.0683   -6.2822 H         1 UNK         0.1406 
     83 H83        29.8445   -3.9339   -2.5921 H         1 UNK         0.1631 
     84 H84        29.3952   -5.0816   -4.6013 H         1 UNK         0.0717 
     85 H85        30.7656   -4.8878   -5.6689 H         1 UNK         0.0717 
     86 H86        26.5325   -4.0977   -5.8318 H         1 UNK         0.0934 
     87 H87        27.5029   -3.1668   -4.7364 H         1 UNK         0.0934 
     88 H88        27.1287   -2.0330   -7.5221 H         1 UNK         0.0739 
     89 H89        24.8728   -2.0301   -5.5800 H         1 UNK         0.3093 
     90 H90        22.5935   -1.1314   -8.0792 H         1 UNK         0.0818 
     91 H91        22.7799   -3.5010   -8.8347 H         1 UNK         0.0819 
     92 H92        22.8835   -4.0471   -7.1672 H         1 UNK         0.0819 
     93 H93        21.4042   -3.2932   -7.7653 H         1 UNK         0.0819 
     94 H94        22.3146   -2.3566   -5.4632 H         1 UNK         0.3041 
     95 H95        22.7521    0.5818   -3.5975 H         1 UNK         0.0784 
     96 H96        20.4302    0.9948   -4.4461 H         1 UNK         0.0793 
     97 H97        20.0433   -0.7066   -4.2305 H         1 UNK         0.0793 
     98 H98        20.4173    0.3046   -2.8334 H         1 UNK         0.0793 
     99 H99        21.7145   -1.7762   -2.6267 H         1 UNK         0.3024 
    100 H100       23.0124   -3.0589   -1.3063 H         1 UNK         0.1171 
    101 H101       24.5049   -4.6216   -3.4988 H         1 UNK         0.0786 
    102 H102       23.7970   -5.3213   -2.0443 H         1 UNK         0.0786 
    103 H103       22.7603   -4.6076   -3.2689 H         1 UNK         0.0786 
    104 H104       25.8373   -3.6830   -1.6519 H         1 UNK         0.2977 
    105 H105       25.8595   -0.6247   -4.5402 H         1 UNK         0.3127 
    106 H106       27.9179    0.8280   -3.5227 H         1 UNK         0.0770 
    107 H107       25.6153    0.6678   -2.5515 H         1 UNK         0.0814 
    108 H108       26.1393    2.3422   -2.6420 H         1 UNK         0.0814 
    109 H109       24.9956    1.7139   -3.8201 H         1 UNK         0.0814 
    110 H110       29.3743    1.9347   -4.6308 H         1 UNK         0.2983 
    111 H111       30.4632    3.4190   -5.8456 H         1 UNK         0.0947 
    112 H112       27.9416    5.1558   -5.7872 H         1 UNK         0.0806 
    113 H113       29.5814    5.7006   -6.1027 H         1 UNK         0.0806 
    114 H114       29.1577    5.0953   -4.5116 H         1 UNK         0.0806 
    115 H115       28.9506    1.2874   -7.2504 H         1 UNK         0.3000 
    116 H116       28.3057    2.3328   -9.8880 H         1 UNK         0.0850 
    117 H117       28.0569   -0.0748  -10.4477 H         1 UNK         0.0810 
    118 H118       27.2781    0.2408   -8.9131 H         1 UNK         0.0810 
    119 H119       28.8556   -0.5432   -8.9530 H         1 UNK         0.0810 
    120 H120       29.4399    1.1132  -11.7803 H         1 UNK         0.3040 
    121 H121       32.0061    2.1264  -12.1743 H         1 UNK         0.0766 
    122 H122       30.5459   -0.1182  -13.6711 H         1 UNK         0.0812 
    123 H123       31.9292    0.7766  -14.2835 H         1 UNK         0.0812 
    124 H124       30.4121    1.6102  -14.0022 H         1 UNK         0.0812 
    125 H125       31.2384   -0.7588  -10.4883 H         1 UNK         0.3205 
    126 H126       33.6920   -2.2205  -10.7683 H         1 UNK         0.0754 
    127 H127       31.6182   -2.1198   -8.5089 H         1 UNK         0.0769 
    128 H128       32.9173   -3.2994   -8.6240 H         1 UNK         0.0769 
    129 H129       31.6536   -3.2715   -9.8427 H         1 UNK         0.0769 
    130 H130       32.7571    0.6243   -8.8598 H         1 UNK         0.2981 
    131 H131       35.4907    0.7525   -7.6602 H         1 UNK         0.0541 
    132 H132       34.1552    3.7816  -10.1202 H         1 UNK         0.3459 
    133 H133       32.9972    2.5880   -9.5655 H         1 UNK         0.3459 
    134 H134       32.9712    2.1949   -6.7097 H         1 UNK         0.0612 
    135 H135       34.5676    2.3607   -6.0248 H         1 UNK         0.0612 
    136 H136       31.3778    0.3271   -6.2838 H         1 UNK         0.0624 
    137 H137       31.5170    1.2258   -4.7886 H         1 UNK         0.0624 
@<TRIPOS>BOND
     1    1    2 1    
     2    1   72 1    
     3    1   73 1    
     4    1   74 1    
     5    2    3 2    
     6    2    4 am   BACKBONE|DICT|INTERRES
     7    4    5 1    
     8    4   75 1    
     9    5    6 1    
    10    5   35 1    
    11    5   76 1    
    12    6    7 1    
    13    6   77 1    
    14    6   78 1    
    15    7    8 1    
    16    8    9 1    
    17    8   79 1    
    18    8   80 1    
    19    9   10 ar   
    20    9   14 ar   
    21   10   11 ar   
    22   10   81 1    
    23   11   12 ar   
    24   11   71 1    
    25   12   13 ar   
    26   12   82 1    
    27   13   14 ar   
    28   13   15 1    
    29   14   83 1    
    30   15   16 1    
    31   15   84 1    
    32   15   85 1    
    33   16   17 1    
    34   17   18 1    
    35   17   86 1    
    36   17   87 1    
    37   18   19 1    
    38   18   37 1    
    39   18   88 1    
    40   19   20 am   BACKBONE|DICT|INTERRES
    41   19   89 1    
    42   20   21 2    
    43   20   22 1    
    44   22   23 1    
    45   22   24 1    
    46   22   90 1    
    47   23   91 1    
    48   23   92 1    
    49   23   93 1    
    50   24   25 am   BACKBONE|DICT|INTERRES
    51   24   94 1    
    52   25   26 2    
    53   25   27 1    
    54   27   28 1    
    55   27   29 1    
    56   27   95 1    
    57   28   96 1    
    58   28   97 1    
    59   28   98 1    
    60   29   30 am   BACKBONE|DICT|INTERRES
    61   29   99 1    
    62   30   31 2    
    63   30   32 1    
    64   32   33 1    
    65   32   34 1    
    66   32  100 1    
    67   33  101 1    
    68   33  102 1    
    69   33  103 1    
    70   34   35 am   BACKBONE|DICT|INTERRES
    71   34  104 1    
    72   35   36 2    
    73   37   38 2    
    74   37   39 am   BACKBONE|DICT|INTERRES
    75   39   40 1    
    76   39  105 1    
    77   40   41 1    
    78   40   42 1    
    79   40  106 1    
    80   41  107 1    
    81   41  108 1    
    82   41  109 1    
    83   42   43 2    
    84   42   44 am   BACKBONE|DICT|INTERRES
    85   44   45 1    
    86   44  110 1    
    87   45   46 1    
    88   45   47 1    
    89   45  111 1    
    90   46  112 1    
    91   46  113 1    
    92   46  114 1    
    93   47   48 2    
    94   47   49 am   BACKBONE|DICT|INTERRES
    95   49   50 1    
    96   49  115 1    
    97   50   51 1    
    98   50   52 1    
    99   50  116 1    
   100   51  117 1    
   101   51  118 1    
   102   51  119 1    
   103   52   53 2    
   104   52   54 am   BACKBONE|DICT|INTERRES
   105   54   55 1    
   106   54  120 1    
   107   55   56 1    
   108   55   57 1    
   109   55  121 1    
   110   56  122 1    
   111   56  123 1    
   112   56  124 1    
   113   57   58 2    
   114   57   59 am   BACKBONE|DICT|INTERRES
   115   59   60 1    
   116   59  125 1    
   117   60   61 1    
   118   60   62 1    
   119   60  126 1    
   120   61  127 1    
   121   61  128 1    
   122   61  129 1    
   123   62   63 2    
   124   62   64 am   BACKBONE|DICT|INTERRES
   125   64   65 1    
   126   64  130 1    
   127   65   66 1    
   128   65   69 1    
   129   65  131 1    
   130   66   67 am   BACKBONE|DICT|INTERRES
   131   66   68 2    
   132   67  132 1    
   133   67  133 1    
   134   69   70 1    
   135   69  134 1    
   136   69  135 1    
   137   70   71 1    
   138   71  136 1    
   139   71  137 1    
@<TRIPOS>SUBSTRUCTURE
     1 UNK         1 GROUP             0       ****    0 ROOT    
