@<TRIPOS>MOLECULE
3R137
137   139    1
SMALL
USER_CHARGES


@<TRIPOS>ATOM
      1 CA         26.1641   -5.0309    2.9536 C.3       0 UNK        -0.2020 
      2 C          26.8124   -4.3748    1.7435 C.2       0 UNK         0.4855 
      3 O          27.6054   -5.0176    1.0559 O.2       0 UNK        -0.5197 
      4 N          26.4786   -3.1017    1.4847 N.am      1 UNK        -0.4892 
      5 CA         26.9717   -2.2836    0.3661 C.3       1 UNK         0.0835 
      6 C6         28.5042   -2.0155    0.4430 C.3       12 UNK        -0.0855 
      7 S7         28.9872   -0.4024   -0.2721 S.3       12 UNK        -0.2931 
      8 C8         30.6812   -0.7457   -0.8558 C.3       12 UNK         0.0378 
      9 C9         30.7518   -0.9554   -2.3642 C.ar      12 UNK        -0.0802 
     10 C10        31.3219    0.0236   -3.1851 C.ar      12 UNK        -0.0944 
     11 C11        31.4326   -0.1804   -4.5640 C.ar      12 UNK        -0.0787 
     12 C12        30.9504   -1.3667   -5.1267 C.ar      12 UNK        -0.0862 
     13 C13        30.3685   -2.3479   -4.3207 C.ar      12 UNK        -0.0733 
     14 C14        30.2810   -2.1394   -2.9403 C.ar      12 UNK        -0.0832 
     15 C15        29.8542   -3.6447   -4.9291 C.3       12 UNK         0.0240 
     16 S16        28.0682   -3.5694   -5.2842 S.3       12 UNK        -0.2522 
     17 C17        27.9946   -3.2884   -7.0859 C.3       12 UNK        -0.0967 
     18 CA         27.3026   -1.9782   -7.5386 C.3       5 UNK         0.0660 
     19 N          25.8833   -1.8942   -7.1608 N.am      5 UNK        -0.4015 
     20 C          25.0016   -1.1216   -7.8191 C.2       4 UNK         0.4946 
     21 O          25.3043   -0.4259   -8.7892 O.2       4 UNK        -0.5353 
     22 CA         23.5501   -1.0723   -7.3030 C.3       4 UNK         0.0277 
     23 CB         22.7540   -2.2840   -7.8122 C.3       4 UNK        -0.1981 
     24 N          23.4446   -0.9924   -5.8450 N.am      4 UNK        -0.4209 
     25 C          24.0023   -0.0377   -5.0905 C.2       3 UNK         0.4942 
     26 O          24.5760    0.9425   -5.5613 O.2       3 UNK        -0.5208 
     27 CA         23.9550   -0.1849   -3.5587 C.3       3 UNK         0.0250 
     28 CB         22.8106    0.6688   -2.9881 C.3       3 UNK        -0.1990 
     29 N          23.8811   -1.5323   -2.9717 N.am      3 UNK        -0.4232 
     30 C          24.4909   -2.6656   -3.3553 C.2       2 UNK         0.4993 
     31 O          25.0274   -2.8412   -4.4495 O.2       2 UNK        -0.5286 
     32 CA         24.5406   -3.7681   -2.2791 C.3       2 UNK         0.0209 
     33 CB         25.1573   -5.0870   -2.7935 C.3       2 UNK        -0.1931 
     34 N          25.2421   -3.2970   -1.0716 N.am      2 UNK        -0.4546 
     35 C          26.5000   -2.8215   -1.0061 C.2       1 UNK         0.5154 
     36 O          27.2662   -2.7941   -1.9661 O.2       1 UNK        -0.5181 
     37 C          28.0904   -0.7121   -7.1475 C.2       5 UNK         0.5014 
     38 O          29.0419   -0.3543   -7.8474 O.2       5 UNK        -0.5248 
     39 N          27.6625   -0.0374   -6.0707 N.am      6 UNK        -0.4434 
     40 CA         28.1996    1.2506   -5.6371 C.3       6 UNK         0.0363 
     41 CB         27.7887    1.5359   -4.1846 C.3       6 UNK        -0.1936 
     42 C          27.7829    2.3866   -6.5821 C.2       6 UNK         0.5081 
     43 O          28.6316    3.1922   -6.9608 O.2       6 UNK        -0.5248 
     44 N          26.5072    2.4001   -6.9951 N.am      7 UNK        -0.4718 
     45 CA         25.9517    3.3265   -7.9871 C.3       7 UNK         0.0273 
     46 CB         24.4267    3.1506   -8.0584 C.3       7 UNK        -0.1935 
     47 C          26.5834    3.1618   -9.3797 C.2       7 UNK         0.5018 
     48 O          26.8369    4.1629  -10.0504 O.2       7 UNK        -0.5186 
     49 N          26.8645    1.9103   -9.7705 N.am      8 UNK        -0.4240 
     50 CA         27.6131    1.5642  -10.9827 C.3       8 UNK         0.0235 
     51 CB         27.3990    0.0740  -11.2950 C.3       8 UNK        -0.2000 
     52 C          29.1210    1.8726  -10.8908 C.2       8 UNK         0.4941 
     53 O          29.7892    1.8579  -11.9253 O.2       8 UNK        -0.5273 
     54 N          29.6295    2.1196   -9.6724 N.am      9 UNK        -0.4262 
     55 CA         31.0335    2.3448   -9.3120 C.3       9 UNK         0.0264 
     56 CB         31.5470    3.6769   -9.8972 C.3       9 UNK        -0.1955 
     57 C          31.9342    1.1440   -9.6590 C.2       9 UNK         0.5031 
     58 O          33.0670    1.3302  -10.1093 O.2       9 UNK        -0.5390 
     59 N          31.4217   -0.0750   -9.4278 N.am      10 UNK        -0.4204 
     60 CA         32.0755   -1.3438   -9.7748 C.3       10 UNK         0.0237 
     61 CB         31.0998   -2.4997   -9.5116 C.3       10 UNK        -0.1985 
     62 C          33.4035   -1.5936   -9.0371 C.2       10 UNK         0.4970 
     63 O          34.2410   -2.3449   -9.5376 O.2       10 UNK        -0.4914 
     64 N          33.5687   -0.9559   -7.8733 N.am      11 UNK        -0.4285 
     65 CA         34.8007   -0.9362   -7.0795 C.3       11 UNK         0.1007 
     66 C          35.9371   -0.0413   -7.6609 C.2       11 UNK         0.5703 
     67 N          35.6997    0.7644   -8.6915 N.am      11 UNK        -0.7361 
     68 O          37.0643   -0.0935   -7.1745 O.2       11 UNK        -0.4986 
     69 C69        34.4931   -0.6363   -5.5882 C.3       12 UNK        -0.0947 
     70 S70        33.8550    1.0461   -5.2496 S.3       12 UNK        -0.2240 
     71 C71        32.0492    0.8911   -5.4517 C.3       12 UNK         0.0194 
     72 H72        25.4940   -4.3506    3.4789 H         1 UNK         0.0906 
     73 H73        25.5878   -5.9023    2.6437 H         1 UNK         0.0906 
     74 H74        26.9294   -5.3610    3.6556 H         1 UNK         0.0906 
     75 H75        25.8233   -2.6362    2.0989 H         1 UNK         0.3140 
     76 H76        26.4667   -1.3230    0.4819 H         1 UNK         0.1085 
     77 H77        28.8254   -1.9977    1.4856 H         1 UNK         0.0836 
     78 H78        29.0664   -2.8286   -0.0195 H         1 UNK         0.0836 
     79 H79        31.0924   -1.6164   -0.3432 H         1 UNK         0.0731 
     80 H80        31.3156    0.0933   -0.5655 H         1 UNK         0.0731 
     81 H81        31.6928    0.9427   -2.7522 H         1 UNK         0.1312 
     82 H82        31.0204   -1.5262   -6.1932 H         1 UNK         0.1406 
     83 H83        29.8333   -2.8985   -2.3142 H         1 UNK         0.1631 
     84 H84        30.0264   -4.4626   -4.2279 H         1 UNK         0.0717 
     85 H85        30.4197   -3.9017   -5.8255 H         1 UNK         0.0717 
     86 H86        28.9964   -3.3443   -7.5076 H         1 UNK         0.0934 
     87 H87        27.4620   -4.1360   -7.5197 H         1 UNK         0.0934 
     88 H88        27.3298   -2.0052   -8.6300 H         1 UNK         0.0739 
     89 H89        25.5947   -2.3940   -6.3220 H         1 UNK         0.3093 
     90 H90        23.0911   -0.1689   -7.7100 H         1 UNK         0.0818 
     91 H91        22.8054   -2.3551   -8.8997 H         1 UNK         0.0819 
     92 H92        23.1384   -3.2203   -7.4052 H         1 UNK         0.0819 
     93 H93        21.7001   -2.2080   -7.5440 H         1 UNK         0.0819 
     94 H94        23.0412   -1.7879   -5.3717 H         1 UNK         0.3041 
     95 H95        24.8927    0.2366   -3.1923 H         1 UNK         0.0784 
     96 H96        22.8488    1.6886   -3.3749 H         1 UNK         0.0793 
     97 H97        21.8348    0.2576   -3.2496 H         1 UNK         0.0793 
     98 H98        22.8667    0.7384   -1.9016 H         1 UNK         0.0793 
     99 H99        23.4571   -1.5551   -2.0556 H         1 UNK         0.3024 
    100 H100       23.5082   -3.9786   -1.9942 H         1 UNK         0.1171 
    101 H101       25.1533   -5.8549   -2.0202 H         1 UNK         0.0786 
    102 H102       24.5929   -5.4750   -3.6423 H         1 UNK         0.0786 
    103 H103       26.1872   -4.9531   -3.1262 H         1 UNK         0.0786 
    104 H104       24.7001   -3.2951   -0.2186 H         1 UNK         0.2977 
    105 H105       26.8738   -0.4031   -5.5576 H         1 UNK         0.3127 
    106 H106       29.2860    1.1859   -5.6693 H         1 UNK         0.0770 
    107 H107       26.7104    1.6517   -4.0798 H         1 UNK         0.0814 
    108 H108       28.2504    2.4571   -3.8273 H         1 UNK         0.0814 
    109 H109       28.1104    0.7342   -3.5182 H         1 UNK         0.0814 
    110 H110       25.8540    1.7369   -6.5799 H         1 UNK         0.2983 
    111 H111       26.1648    4.3422   -7.6471 H         1 UNK         0.0947 
    112 H112       23.9853    3.8456   -8.7740 H         1 UNK         0.0806 
    113 H113       23.9607    3.3402   -7.0913 H         1 UNK         0.0806 
    114 H114       24.1515    2.1418   -8.3684 H         1 UNK         0.0806 
    115 H115       26.5362    1.1369   -9.1992 H         1 UNK         0.3000 
    116 H116       27.2101    2.1499  -11.8117 H         1 UNK         0.0850 
    117 H117       27.8931   -0.2065  -12.2261 H         1 UNK         0.0810 
    118 H118       26.3404   -0.1616  -11.4067 H         1 UNK         0.0810 
    119 H119       27.8037   -0.5621  -10.5076 H         1 UNK         0.0810 
    120 H120       28.9877    2.1161   -8.8892 H         1 UNK         0.3040 
    121 H121       31.0548    2.4357   -8.2252 H         1 UNK         0.0766 
    122 H122       31.6069    3.6454  -10.9855 H         1 UNK         0.0812 
    123 H123       32.5453    3.9085   -9.5238 H         1 UNK         0.0812 
    124 H124       30.8972    4.5069   -9.6198 H         1 UNK         0.0812 
    125 H125       30.4972   -0.1383   -9.0019 H         1 UNK         0.3205 
    126 H126       32.2956   -1.3148  -10.8440 H         1 UNK         0.0754 
    127 H127       31.5113   -3.4466   -9.8638 H         1 UNK         0.0769 
    128 H128       30.1483   -2.3476  -10.0218 H         1 UNK         0.0769 
    129 H129       30.9011   -2.6078   -8.4463 H         1 UNK         0.0769 
    130 H130       32.8378   -0.3390   -7.5599 H         1 UNK         0.2981 
    131 H131       35.2034   -1.9505   -7.1078 H         1 UNK         0.0541 
    132 H132       36.4520    1.3280   -9.0534 H         1 UNK         0.3459 
    133 H133       34.7796    0.8278   -9.1126 H         1 UNK         0.3459 
    134 H134       35.4006   -0.7634   -4.9956 H         1 UNK         0.0612 
    135 H135       33.7979   -1.3785   -5.1959 H         1 UNK         0.0612 
    136 H136       31.8109    0.7078   -6.4986 H         1 UNK         0.0624 
    137 H137       31.5974    1.8543   -5.2103 H         1 UNK         0.0624 
@<TRIPOS>BOND
     1    1    2 1    
     2    1   72 1    
     3    1   73 1    
     4    1   74 1    
     5    2    3 2    
     6    2    4 am   BACKBONE|DICT|INTERRES
     7    4    5 1    
     8    4   75 1    
     9    5    6 1    
    10    5   35 1    
    11    5   76 1    
    12    6    7 1    
    13    6   77 1    
    14    6   78 1    
    15    7    8 1    
    16    8    9 1    
    17    8   79 1    
    18    8   80 1    
    19    9   10 ar   
    20    9   14 ar   
    21   10   11 ar   
    22   10   81 1    
    23   11   12 ar   
    24   11   71 1    
    25   12   13 ar   
    26   12   82 1    
    27   13   14 ar   
    28   13   15 1    
    29   14   83 1    
    30   15   16 1    
    31   15   84 1    
    32   15   85 1    
    33   16   17 1    
    34   17   18 1    
    35   17   86 1    
    36   17   87 1    
    37   18   19 1    
    38   18   37 1    
    39   18   88 1    
    40   19   20 am   BACKBONE|DICT|INTERRES
    41   19   89 1    
    42   20   21 2    
    43   20   22 1    
    44   22   23 1    
    45   22   24 1    
    46   22   90 1    
    47   23   91 1    
    48   23   92 1    
    49   23   93 1    
    50   24   25 am   BACKBONE|DICT|INTERRES
    51   24   94 1    
    52   25   26 2    
    53   25   27 1    
    54   27   28 1    
    55   27   29 1    
    56   27   95 1    
    57   28   96 1    
    58   28   97 1    
    59   28   98 1    
    60   29   30 am   BACKBONE|DICT|INTERRES
    61   29   99 1    
    62   30   31 2    
    63   30   32 1    
    64   32   33 1    
    65   32   34 1    
    66   32  100 1    
    67   33  101 1    
    68   33  102 1    
    69   33  103 1    
    70   34   35 am   BACKBONE|DICT|INTERRES
    71   34  104 1    
    72   35   36 2    
    73   37   38 2    
    74   37   39 am   BACKBONE|DICT|INTERRES
    75   39   40 1    
    76   39  105 1    
    77   40   41 1    
    78   40   42 1    
    79   40  106 1    
    80   41  107 1    
    81   41  108 1    
    82   41  109 1    
    83   42   43 2    
    84   42   44 am   BACKBONE|DICT|INTERRES
    85   44   45 1    
    86   44  110 1    
    87   45   46 1    
    88   45   47 1    
    89   45  111 1    
    90   46  112 1    
    91   46  113 1    
    92   46  114 1    
    93   47   48 2    
    94   47   49 am   BACKBONE|DICT|INTERRES
    95   49   50 1    
    96   49  115 1    
    97   50   51 1    
    98   50   52 1    
    99   50  116 1    
   100   51  117 1    
   101   51  118 1    
   102   51  119 1    
   103   52   53 2    
   104   52   54 am   BACKBONE|DICT|INTERRES
   105   54   55 1    
   106   54  120 1    
   107   55   56 1    
   108   55   57 1    
   109   55  121 1    
   110   56  122 1    
   111   56  123 1    
   112   56  124 1    
   113   57   58 2    
   114   57   59 am   BACKBONE|DICT|INTERRES
   115   59   60 1    
   116   59  125 1    
   117   60   61 1    
   118   60   62 1    
   119   60  126 1    
   120   61  127 1    
   121   61  128 1    
   122   61  129 1    
   123   62   63 2    
   124   62   64 am   BACKBONE|DICT|INTERRES
   125   64   65 1    
   126   64  130 1    
   127   65   66 1    
   128   65   69 1    
   129   65  131 1    
   130   66   67 am   BACKBONE|DICT|INTERRES
   131   66   68 2    
   132   67  132 1    
   133   67  133 1    
   134   69   70 1    
   135   69  134 1    
   136   69  135 1    
   137   70   71 1    
   138   71  136 1    
   139   71  137 1    
@<TRIPOS>SUBSTRUCTURE
     1 UNK         1 GROUP             0       ****    0 ROOT    
