@<TRIPOS>MOLECULE
3R137
137   139    1
SMALL
USER_CHARGES


@<TRIPOS>ATOM
      1 CA         25.0155   -6.6623   -3.3160 C.3       0 UNK        -0.2020 
      2 C          25.0984   -5.5510   -2.2812 C.2       0 UNK         0.4855 
      3 O          24.0867   -4.9173   -1.9786 O.2       0 UNK        -0.5197 
      4 N          26.3021   -5.3129   -1.7454 N.am      1 UNK        -0.4892 
      5 CA         26.6576   -4.2792   -0.7653 C.3       1 UNK         0.0835 
      6 C6         28.1547   -4.3737   -0.3358 C.3       12 UNK        -0.0855 
      7 S7         29.3228   -4.9109   -1.6470 S.3       12 UNK        -0.2931 
      8 C8         30.8598   -4.0275   -1.2264 C.3       12 UNK         0.0378 
      9 C9         30.9526   -2.6809   -1.9295 C.ar      12 UNK        -0.0802 
     10 C10        31.6065   -2.5637   -3.1611 C.ar      12 UNK        -0.0944 
     11 C11        31.6868   -1.3261   -3.8111 C.ar      12 UNK        -0.0787 
     12 C12        31.1079   -0.1999   -3.2167 C.ar      12 UNK        -0.0862 
     13 C13        30.4562   -0.3048   -1.9837 C.ar      12 UNK        -0.0733 
     14 C14        30.3924   -1.5454   -1.3431 C.ar      12 UNK        -0.0832 
     15 C15        29.8298    0.9135   -1.3213 C.3       12 UNK         0.0240 
     16 S16        28.0428    0.6792   -1.0594 S.3       12 UNK        -0.2522 
     17 C17        27.2990    1.5880   -2.4496 C.3       12 UNK        -0.0967 
     18 CA         27.7076    1.1244   -3.8714 C.3       5 UNK         0.0660 
     19 N          27.4921   -0.3092   -4.1373 N.am      5 UNK        -0.4015 
     20 C          27.7632   -0.9271   -5.3037 C.2       4 UNK         0.4946 
     21 O          28.2620   -0.3612   -6.2754 O.2       4 UNK        -0.5353 
     22 CA         27.3227   -2.3916   -5.4596 C.3       4 UNK         0.0277 
     23 CB         28.3261   -3.3627   -4.8194 C.3       4 UNK        -0.1981 
     24 N          25.9963   -2.5862   -4.8785 N.am      4 UNK        -0.4209 
     25 C          24.8477   -2.2927   -5.5064 C.2       3 UNK         0.4942 
     26 O          24.7829   -1.9612   -6.6898 O.2       3 UNK        -0.5208 
     27 CA         23.5493   -2.3503   -4.6795 C.3       3 UNK         0.0250 
     28 CB         22.7849   -3.6559   -4.9473 C.3       3 UNK        -0.1990 
     29 N          23.7803   -2.1970   -3.2403 N.am      3 UNK        -0.4232 
     30 C          24.1534   -1.0428   -2.6669 C.2       2 UNK         0.4993 
     31 O          24.2698    0.0157   -3.2861 O.2       2 UNK        -0.5286 
     32 CA         24.5173   -1.0855   -1.1706 C.3       2 UNK         0.0209 
     33 CB         23.2790   -0.7958   -0.3084 C.3       2 UNK        -0.1931 
     34 N          25.1269   -2.3513   -0.7432 N.am      2 UNK        -0.4546 
     35 C          26.2544   -2.8709   -1.2521 C.2       1 UNK         0.5154 
     36 O          26.9148   -2.3110   -2.1250 O.2       1 UNK        -0.5181 
     37 C          27.0138    2.0340   -4.9057 C.2       5 UNK         0.5014 
     38 O          27.5997    3.0307   -5.3292 O.2       5 UNK        -0.5248 
     39 N          25.8012    1.6508   -5.3290 N.am      6 UNK        -0.4434 
     40 CA         25.0265    2.3078   -6.3856 C.3       6 UNK         0.0363 
     41 CB         23.6480    1.6334   -6.4779 C.3       6 UNK        -0.1936 
     42 C          25.7070    2.3333   -7.7723 C.2       6 UNK         0.5081 
     43 O          25.2963    3.1316   -8.6152 O.2       6 UNK        -0.5248 
     44 N          26.7180    1.4818   -7.9936 N.am      7 UNK        -0.4718 
     45 CA         27.4809    1.3722   -9.2374 C.3       7 UNK         0.0273 
     46 CB         27.2068   -0.0123   -9.8534 C.3       7 UNK        -0.1935 
     47 C          28.9885    1.5878   -9.0120 C.2       7 UNK         0.5018 
     48 O          29.7698    1.2337   -9.8976 O.2       7 UNK        -0.5186 
     49 N          29.3854    2.1512   -7.8568 N.am      8 UNK        -0.4240 
     50 CA         30.7664    2.2317   -7.3474 C.3       8 UNK         0.0235 
     51 CB         30.7775    2.9745   -6.0023 C.3       8 UNK        -0.2000 
     52 C          31.8250    2.8478   -8.2807 C.2       8 UNK         0.4941 
     53 O          33.0118    2.5839   -8.0847 O.2       8 UNK        -0.5273 
     54 N          31.3963    3.6309   -9.2808 N.am      9 UNK        -0.4262 
     55 CA         32.2411    4.1577  -10.3576 C.3       9 UNK         0.0264 
     56 CB         31.4116    5.1172  -11.2262 C.3       9 UNK        -0.1955 
     57 C          32.8866    3.0617  -11.2310 C.2       9 UNK         0.5031 
     58 O          33.9508    3.3062  -11.8021 O.2       9 UNK        -0.5390 
     59 N          32.2480    1.8862  -11.3080 N.am      10 UNK        -0.4204 
     60 CA         32.7699    0.6844  -11.9614 C.3       10 UNK         0.0237 
     61 CB         31.9106    0.3550  -13.1940 C.3       10 UNK        -0.1985 
     62 C          32.8002   -0.5020  -10.9862 C.2       10 UNK         0.4970 
     63 O          33.7890   -1.2350  -10.9603 O.2       10 UNK        -0.4914 
     64 N          31.7219   -0.6661  -10.2084 N.am      11 UNK        -0.4285 
     65 CA         31.4896   -1.7380   -9.2303 C.3       11 UNK         0.1007 
     66 C          31.4417   -3.1790   -9.8298 C.2       11 UNK         0.5703 
     67 N          31.1282   -3.3402  -11.1106 N.am      11 UNK        -0.7361 
     68 O          31.6663   -4.1667   -9.1344 O.2       11 UNK        -0.4986 
     69 C69        32.3880   -1.5951   -7.9657 C.3       12 UNK        -0.0947 
     70 S70        31.4639   -2.0460   -6.4616 S.3       12 UNK        -0.2240 
     71 C71        32.4001   -1.2061   -5.1523 C.3       12 UNK         0.0194 
     72 H72        24.0826   -7.2143   -3.2047 H         1 UNK         0.0906 
     73 H73        25.0493   -6.2454   -4.3218 H         1 UNK         0.0906 
     74 H74        25.8381   -7.3696   -3.2123 H         1 UNK         0.0906 
     75 H75        27.0985   -5.8433   -2.0731 H         1 UNK         0.3140 
     76 H76        26.0623   -4.4846    0.1269 H         1 UNK         0.1085 
     77 H77        28.2402   -5.1069    0.4677 H         1 UNK         0.0836 
     78 H78        28.4936   -3.4348    0.1043 H         1 UNK         0.0836 
     79 H79        31.7070   -4.6505   -1.5172 H         1 UNK         0.0731 
     80 H80        30.9371   -3.9028   -0.1452 H         1 UNK         0.0731 
     81 H81        32.0442   -3.4382   -3.6229 H         1 UNK         0.1312 
     82 H82        31.1681    0.7578   -3.7136 H         1 UNK         0.1406 
     83 H83        29.8890   -1.6246   -0.3900 H         1 UNK         0.1631 
     84 H84        30.0114    1.8219   -1.8975 H         1 UNK         0.0717 
     85 H85        30.3063    1.0665   -0.3521 H         1 UNK         0.0717 
     86 H86        26.2162    1.5338   -2.3286 H         1 UNK         0.0934 
     87 H87        27.5535    2.6415   -2.3135 H         1 UNK         0.0934 
     88 H88        28.7776    1.2873   -3.9801 H         1 UNK         0.0739 
     89 H89        27.1642   -0.8734   -3.3570 H         1 UNK         0.3093 
     90 H90        27.2738   -2.6224   -6.5261 H         1 UNK         0.0818 
     91 H91        28.6594   -3.0206   -3.8401 H         1 UNK         0.0819 
     92 H92        27.9068   -4.3617   -4.7018 H         1 UNK         0.0819 
     93 H93        29.2155   -3.4608   -5.4387 H         1 UNK         0.0819 
     94 H94        25.9788   -2.7856   -3.8853 H         1 UNK         0.3041 
     95 H95        22.9199   -1.5205   -5.0093 H         1 UNK         0.0784 
     96 H96        22.5506   -3.7588   -6.0078 H         1 UNK         0.0793 
     97 H97        23.3631   -4.5317   -4.6566 H         1 UNK         0.0793 
     98 H98        21.8406   -3.6819   -4.4032 H         1 UNK         0.0793 
     99 H99        23.7391   -3.0396   -2.6731 H         1 UNK         0.3024 
    100 H100       25.2474   -0.2947   -0.9934 H         1 UNK         0.1171 
    101 H101       22.5205   -1.5722   -0.4164 H         1 UNK         0.0786 
    102 H102       22.8190    0.1518   -0.5931 H         1 UNK         0.0786 
    103 H103       23.5388   -0.7226    0.7478 H         1 UNK         0.0786 
    104 H104       24.6041   -2.8970   -0.0727 H         1 UNK         0.2977 
    105 H105       25.3629    0.8605   -4.8668 H         1 UNK         0.3127 
    106 H106       24.8800    3.3464   -6.0824 H         1 UNK         0.0770 
    107 H107       23.7321    0.5889   -6.7795 H         1 UNK         0.0814 
    108 H108       23.0155    2.1345   -7.2119 H         1 UNK         0.0814 
    109 H109       23.1234    1.6657   -5.5226 H         1 UNK         0.0814 
    110 H110       27.0233    0.8640   -7.2455 H         1 UNK         0.2983 
    111 H111       27.1653    2.1351   -9.9517 H         1 UNK         0.0947 
    112 H112       27.7061   -0.1249  -10.8167 H         1 UNK         0.0806 
    113 H113       26.1412   -0.1654  -10.0242 H         1 UNK         0.0806 
    114 H114       27.5599   -0.8151   -9.2042 H         1 UNK         0.0806 
    115 H115       28.6624    2.4226   -7.2008 H         1 UNK         0.3000 
    116 H116       31.0817    1.2028   -7.1639 H         1 UNK         0.0850 
    117 H117       31.7919    3.0838   -5.6154 H         1 UNK         0.0810 
    118 H118       30.2125    2.4324   -5.2493 H         1 UNK         0.0810 
    119 H119       30.3500    3.9740   -6.0899 H         1 UNK         0.0810 
    120 H120       30.4031    3.7951   -9.3579 H         1 UNK         0.3040 
    121 H121       33.0513    4.7250   -9.8948 H         1 UNK         0.0766 
    122 H122       31.0178    5.9465  -10.6385 H         1 UNK         0.0812 
    123 H123       30.5703    4.6089  -11.6992 H         1 UNK         0.0812 
    124 H124       32.0211    5.5477  -12.0222 H         1 UNK         0.0812 
    125 H125       31.3770    1.7841  -10.7936 H         1 UNK         0.3205 
    126 H126       33.7964    0.8492  -12.2959 H         1 UNK         0.0754 
    127 H127       32.2657   -0.5501  -13.6887 H         1 UNK         0.0769 
    128 H128       31.9507    1.1612  -13.9268 H         1 UNK         0.0769 
    129 H129       30.8640    0.1975  -12.9297 H         1 UNK         0.0769 
    130 H130       30.9529   -0.0037  -10.2814 H         1 UNK         0.2981 
    131 H131       30.4597   -1.5545   -8.9207 H         1 UNK         0.0541 
    132 H132       30.9311   -2.5438  -11.6943 H         1 UNK         0.3459 
    133 H133       31.0917   -4.2710  -11.4949 H         1 UNK         0.3459 
    134 H134       33.2944   -2.1979   -8.0422 H         1 UNK         0.0612 
    135 H135       32.7205   -0.5622   -7.8513 H         1 UNK         0.0612 
    136 H136       33.3958   -1.6456   -5.0807 H         1 UNK         0.0624 
    137 H137       32.5369   -0.1580   -5.4233 H         1 UNK         0.0624 
@<TRIPOS>BOND
     1    1    2 1    
     2    1   72 1    
     3    1   73 1    
     4    1   74 1    
     5    2    3 2    
     6    2    4 am   BACKBONE|DICT|INTERRES
     7    4    5 1    
     8    4   75 1    
     9    5    6 1    
    10    5   35 1    
    11    5   76 1    
    12    6    7 1    
    13    6   77 1    
    14    6   78 1    
    15    7    8 1    
    16    8    9 1    
    17    8   79 1    
    18    8   80 1    
    19    9   10 ar   
    20    9   14 ar   
    21   10   11 ar   
    22   10   81 1    
    23   11   12 ar   
    24   11   71 1    
    25   12   13 ar   
    26   12   82 1    
    27   13   14 ar   
    28   13   15 1    
    29   14   83 1    
    30   15   16 1    
    31   15   84 1    
    32   15   85 1    
    33   16   17 1    
    34   17   18 1    
    35   17   86 1    
    36   17   87 1    
    37   18   19 1    
    38   18   37 1    
    39   18   88 1    
    40   19   20 am   BACKBONE|DICT|INTERRES
    41   19   89 1    
    42   20   21 2    
    43   20   22 1    
    44   22   23 1    
    45   22   24 1    
    46   22   90 1    
    47   23   91 1    
    48   23   92 1    
    49   23   93 1    
    50   24   25 am   BACKBONE|DICT|INTERRES
    51   24   94 1    
    52   25   26 2    
    53   25   27 1    
    54   27   28 1    
    55   27   29 1    
    56   27   95 1    
    57   28   96 1    
    58   28   97 1    
    59   28   98 1    
    60   29   30 am   BACKBONE|DICT|INTERRES
    61   29   99 1    
    62   30   31 2    
    63   30   32 1    
    64   32   33 1    
    65   32   34 1    
    66   32  100 1    
    67   33  101 1    
    68   33  102 1    
    69   33  103 1    
    70   34   35 am   BACKBONE|DICT|INTERRES
    71   34  104 1    
    72   35   36 2    
    73   37   38 2    
    74   37   39 am   BACKBONE|DICT|INTERRES
    75   39   40 1    
    76   39  105 1    
    77   40   41 1    
    78   40   42 1    
    79   40  106 1    
    80   41  107 1    
    81   41  108 1    
    82   41  109 1    
    83   42   43 2    
    84   42   44 am   BACKBONE|DICT|INTERRES
    85   44   45 1    
    86   44  110 1    
    87   45   46 1    
    88   45   47 1    
    89   45  111 1    
    90   46  112 1    
    91   46  113 1    
    92   46  114 1    
    93   47   48 2    
    94   47   49 am   BACKBONE|DICT|INTERRES
    95   49   50 1    
    96   49  115 1    
    97   50   51 1    
    98   50   52 1    
    99   50  116 1    
   100   51  117 1    
   101   51  118 1    
   102   51  119 1    
   103   52   53 2    
   104   52   54 am   BACKBONE|DICT|INTERRES
   105   54   55 1    
   106   54  120 1    
   107   55   56 1    
   108   55   57 1    
   109   55  121 1    
   110   56  122 1    
   111   56  123 1    
   112   56  124 1    
   113   57   58 2    
   114   57   59 am   BACKBONE|DICT|INTERRES
   115   59   60 1    
   116   59  125 1    
   117   60   61 1    
   118   60   62 1    
   119   60  126 1    
   120   61  127 1    
   121   61  128 1    
   122   61  129 1    
   123   62   63 2    
   124   62   64 am   BACKBONE|DICT|INTERRES
   125   64   65 1    
   126   64  130 1    
   127   65   66 1    
   128   65   69 1    
   129   65  131 1    
   130   66   67 am   BACKBONE|DICT|INTERRES
   131   66   68 2    
   132   67  132 1    
   133   67  133 1    
   134   69   70 1    
   135   69  134 1    
   136   69  135 1    
   137   70   71 1    
   138   71  136 1    
   139   71  137 1    
@<TRIPOS>SUBSTRUCTURE
     1 UNK         1 GROUP             0       ****    0 ROOT    
