@<TRIPOS>MOLECULE
3R137
137   139    1
SMALL
USER_CHARGES


@<TRIPOS>ATOM
      1 CA         31.1430    0.0512   -0.9748 C.3       0 UNK        -0.2020 
      2 C          30.8965   -0.1804   -2.4624 C.2       0 UNK         0.4855 
      3 O          31.3848    0.6014   -3.2742 O.2       0 UNK        -0.5197 
      4 N          30.1811   -1.2258   -2.8978 N.am      1 UNK        -0.4892 
      5 CA         29.3824   -2.2180   -2.1670 C.3       1 UNK         0.0835 
      6 C6         30.1167   -2.9388   -1.0015 C.3       12 UNK        -0.0855 
      7 S7         29.5380   -4.6600   -0.7895 S.3       12 UNK        -0.2931 
      8 C8         30.7875   -5.6080   -1.7237 C.3       12 UNK         0.0378 
      9 C9         30.8538   -5.1578   -3.1755 C.ar      12 UNK        -0.0802 
     10 C10        31.8924   -4.3270   -3.6043 C.ar      12 UNK        -0.0944 
     11 C11        31.9115   -3.8137   -4.9083 C.ar      12 UNK        -0.0787 
     12 C12        30.8898   -4.1815   -5.7905 C.ar      12 UNK        -0.0862 
     13 C13        29.8530   -5.0268   -5.3789 C.ar      12 UNK        -0.0733 
     14 C14        29.8467   -5.5212   -4.0723 C.ar      12 UNK        -0.0832 
     15 C15        28.7195   -5.3835   -6.3320 C.3       12 UNK         0.0240 
     16 S16        27.1660   -4.5438   -5.8758 S.3       12 UNK        -0.2522 
     17 C17        27.6213   -2.7942   -6.1033 C.3       12 UNK        -0.0967 
     18 CA         26.6740   -2.0418   -7.0675 C.3       5 UNK         0.0660 
     19 N          25.2937   -1.9752   -6.5889 N.am      5 UNK        -0.4015 
     20 C          24.2281   -1.7747   -7.3768 C.2       4 UNK         0.4946 
     21 O          24.2817   -1.7372   -8.6065 O.2       4 UNK        -0.5353 
     22 CA         22.8685   -1.5654   -6.6835 C.3       4 UNK         0.0277 
     23 CB         22.1294   -2.9055   -6.5381 C.3       4 UNK        -0.1981 
     24 N          22.9701   -0.9230   -5.3700 N.am      4 UNK        -0.4209 
     25 C          23.4014    0.3297   -5.1617 C.2       3 UNK         0.4942 
     26 O          23.7292    1.1022   -6.0618 O.2       3 UNK        -0.5208 
     27 CA         23.5525    0.7727   -3.6942 C.3       3 UNK         0.0250 
     28 CB         22.2194    1.3166   -3.1564 C.3       3 UNK        -0.1990 
     29 N          24.0581   -0.2744   -2.7937 N.am      3 UNK        -0.4232 
     30 C          25.1920   -0.9648   -2.9805 C.2       2 UNK         0.4993 
     31 O          25.9104   -0.8321   -3.9741 O.2       2 UNK        -0.5286 
     32 CA         25.5509   -2.0196   -1.9186 C.3       2 UNK         0.0209 
     33 CB         24.6580   -3.2619   -2.0791 C.3       2 UNK        -0.1931 
     34 N          26.9509   -2.4389   -2.0288 N.am      2 UNK        -0.4546 
     35 C          28.0045   -1.6539   -1.7682 C.2       1 UNK         0.5154 
     36 O          27.9094   -0.5383   -1.2517 O.2       1 UNK        -0.5181 
     37 C          27.1995   -0.6199   -7.3077 C.2       5 UNK         0.5014 
     38 O          27.6843   -0.3334   -8.4006 O.2       5 UNK        -0.5248 
     39 N          27.0832    0.2436   -6.2877 N.am      6 UNK        -0.4434 
     40 CA         27.6186    1.6071   -6.2633 C.3       6 UNK         0.0363 
     41 CB         27.3652    2.2314   -4.8833 C.3       6 UNK        -0.1936 
     42 C          27.0917    2.5179   -7.3845 C.2       6 UNK         0.5081 
     43 O          27.8413    3.3638   -7.8721 O.2       6 UNK        -0.5248 
     44 N          25.8347    2.3085   -7.7999 N.am      7 UNK        -0.4718 
     45 CA         25.2162    2.9773   -8.9475 C.3       7 UNK         0.0273 
     46 CB         23.7095    2.6728   -8.9551 C.3       7 UNK        -0.1935 
     47 C          25.8430    2.5991  -10.3040 C.2       7 UNK         0.5018 
     48 O          25.7531    3.3953  -11.2397 O.2       7 UNK        -0.5186 
     49 N          26.4499    1.4076  -10.3961 N.am      8 UNK        -0.4240 
     50 CA         27.1378    0.9151  -11.5887 C.3       8 UNK         0.0235 
     51 CB         26.8590   -0.5880  -11.7653 C.3       8 UNK        -0.2000 
     52 C          28.6449    1.1933  -11.5014 C.2       8 UNK         0.4941 
     53 O          29.2010    1.7864  -12.4268 O.2       8 UNK        -0.5273 
     54 N          29.2758    0.7726  -10.3979 N.am      9 UNK        -0.4262 
     55 CA         30.7013    0.9281  -10.1268 C.3       9 UNK         0.0264 
     56 CB         31.5305   -0.0481  -10.9870 C.3       9 UNK        -0.1955 
     57 C          30.9475    0.7010   -8.6308 C.2       9 UNK         0.5031 
     58 O          30.9373   -0.4459   -8.1778 O.2       9 UNK        -0.5390 
     59 N          31.1658    1.7945   -7.8916 N.am      10 UNK        -0.4204 
     60 CA         31.5858    1.7706   -6.4888 C.3       10 UNK         0.0237 
     61 CB         31.3112    3.1488   -5.8630 C.3       10 UNK        -0.1985 
     62 C          33.0736    1.3997   -6.3560 C.2       10 UNK         0.4970 
     63 O          33.8370    1.5592   -7.3127 O.2       10 UNK        -0.4914 
     64 N          33.4599    0.9458   -5.1627 N.am      11 UNK        -0.4285 
     65 CA         34.8266    0.5475   -4.8068 C.3       11 UNK         0.1007 
     66 C          35.2151    1.0072   -3.3733 C.2       11 UNK         0.5703 
     67 N          36.4428    0.7424   -2.9454 N.am      11 UNK        -0.7361 
     68 O          34.4334    1.6206   -2.6487 O.2       11 UNK        -0.4986 
     69 C69        35.0762   -0.9630   -5.0803 C.3       12 UNK        -0.0947 
     70 S70        34.0088   -2.0748   -4.1011 S.3       12 UNK        -0.2240 
     71 C71        33.0005   -2.8590   -5.4075 C.3       12 UNK         0.0194 
     72 H72        31.5298    1.0571   -0.8123 H         1 UNK         0.0906 
     73 H73        30.2355   -0.0457   -0.3839 H         1 UNK         0.0906 
     74 H74        31.8867   -0.6509   -0.6003 H         1 UNK         0.0906 
     75 H75        30.0974   -1.3128   -3.8998 H         1 UNK         0.3140 
     76 H76        29.1883   -2.9633   -2.9389 H         1 UNK         0.1085 
     77 H77        31.1924   -2.9594   -1.1796 H         1 UNK         0.0836 
     78 H78        29.9835   -2.4099   -0.0564 H         1 UNK         0.0836 
     79 H79        31.7591   -5.5020   -1.2383 H         1 UNK         0.0731 
     80 H80        30.5374   -6.6690   -1.6803 H         1 UNK         0.0731 
     81 H81        32.6650   -4.0597   -2.8985 H         1 UNK         0.1312 
     82 H82        30.8938   -3.7910   -6.7996 H         1 UNK         0.1406 
     83 H83        29.0347   -6.1550   -3.7414 H         1 UNK         0.1631 
     84 H84        28.9788   -5.1297   -7.3611 H         1 UNK         0.0717 
     85 H85        28.5577   -6.4622   -6.3139 H         1 UNK         0.0717 
     86 H86        27.6495   -2.3248   -5.1198 H         1 UNK         0.0934 
     87 H87        28.6410   -2.7358   -6.4863 H         1 UNK         0.0934 
     88 H88        26.6873   -2.5654   -8.0263 H         1 UNK         0.0739 
     89 H89        25.1796   -1.9236   -5.5846 H         1 UNK         0.3093 
     90 H90        22.2731   -0.9130   -7.3261 H         1 UNK         0.0818 
     91 H91        21.1285   -2.7654   -6.1293 H         1 UNK         0.0819 
     92 H92        22.0156   -3.3944   -7.5068 H         1 UNK         0.0819 
     93 H93        22.6667   -3.5958   -5.8865 H         1 UNK         0.0819 
     94 H94        22.7228   -1.4821   -4.5667 H         1 UNK         0.3041 
     95 H95        24.2787    1.5870   -3.6771 H         1 UNK         0.0784 
     96 H96        21.8330    2.1081   -3.8004 H         1 UNK         0.0793 
     97 H97        21.4563    0.5391   -3.1021 H         1 UNK         0.0793 
     98 H98        22.3370    1.7429   -2.1599 H         1 UNK         0.0793 
     99 H99        23.5132   -0.4516   -1.9617 H         1 UNK         0.3024 
    100 H100       25.3960   -1.5831   -0.9292 H         1 UNK         0.1171 
    101 H101       24.8934   -4.0176   -1.3293 H         1 UNK         0.0786 
    102 H102       23.6032   -3.0117   -1.9592 H         1 UNK         0.0786 
    103 H103       24.7754   -3.7195   -3.0628 H         1 UNK         0.0786 
    104 H104       27.1123   -3.3442   -2.4456 H         1 UNK         0.2977 
    105 H105       26.6471   -0.0862   -5.4263 H         1 UNK         0.3127 
    106 H106       28.6958    1.5207   -6.4029 H         1 UNK         0.0770 
    107 H107       26.2991    2.3350   -4.6820 H         1 UNK         0.0814 
    108 H108       27.8091    3.2255   -4.8172 H         1 UNK         0.0814 
    109 H109       27.8013    1.6272   -4.0869 H         1 UNK         0.0814 
    110 H110       25.2562    1.6459   -7.2912 H         1 UNK         0.2983 
    111 H111       25.3484    4.0538   -8.8190 H         1 UNK         0.0947 
    112 H112       23.2139    3.1596   -9.7962 H         1 UNK         0.0806 
    113 H113       23.2286    3.0320   -8.0450 H         1 UNK         0.0806 
    114 H114       23.5163    1.6019   -9.0347 H         1 UNK         0.0806 
    115 H115       26.5401    0.8400   -9.5598 H         1 UNK         0.3000 
    116 H116       26.7551    1.4260  -12.4750 H         1 UNK         0.0850 
    117 H117       27.3602   -0.9748  -12.6535 H         1 UNK         0.0810 
    118 H118       25.7924   -0.7788  -11.8855 H         1 UNK         0.0810 
    119 H119       27.2058   -1.1745  -10.9140 H         1 UNK         0.0810 
    120 H120       28.7382    0.3097   -9.6620 H         1 UNK         0.3040 
    121 H121       30.9977    1.9483  -10.3803 H         1 UNK         0.0766 
    122 H122       31.4388    0.1752  -12.0498 H         1 UNK         0.0812 
    123 H123       31.2189   -1.0822  -10.8345 H         1 UNK         0.0812 
    124 H124       32.5898    0.0149  -10.7344 H         1 UNK         0.0812 
    125 H125       31.1699    2.6962   -8.3458 H         1 UNK         0.3205 
    126 H126       30.9964    1.0186   -5.9596 H         1 UNK         0.0754 
    127 H127       31.5450    3.1460   -4.7973 H         1 UNK         0.0769 
    128 H128       30.2626    3.4304   -5.9607 H         1 UNK         0.0769 
    129 H129       31.9129    3.9311   -6.3276 H         1 UNK         0.0769 
    130 H130       32.7799    0.8794   -4.4044 H         1 UNK         0.2981 
    131 H131       35.5079    1.1076   -5.4498 H         1 UNK         0.0541 
    132 H132       36.7120    1.0408   -2.0211 H         1 UNK         0.3459 
    133 H133       37.1032    0.2482   -3.5244 H         1 UNK         0.3459 
    134 H134       36.1155   -1.2254   -4.8783 H         1 UNK         0.0612 
    135 H135       34.9308   -1.1671   -6.1421 H         1 UNK         0.0612 
    136 H136       33.6623   -3.4060   -6.0802 H         1 UNK         0.0624 
    137 H137       32.5363   -2.0656   -5.9966 H         1 UNK         0.0624 
@<TRIPOS>BOND
     1    1    2 1    
     2    1   72 1    
     3    1   73 1    
     4    1   74 1    
     5    2    3 2    
     6    2    4 am   BACKBONE|DICT|INTERRES
     7    4    5 1    
     8    4   75 1    
     9    5    6 1    
    10    5   35 1    
    11    5   76 1    
    12    6    7 1    
    13    6   77 1    
    14    6   78 1    
    15    7    8 1    
    16    8    9 1    
    17    8   79 1    
    18    8   80 1    
    19    9   10 ar   
    20    9   14 ar   
    21   10   11 ar   
    22   10   81 1    
    23   11   12 ar   
    24   11   71 1    
    25   12   13 ar   
    26   12   82 1    
    27   13   14 ar   
    28   13   15 1    
    29   14   83 1    
    30   15   16 1    
    31   15   84 1    
    32   15   85 1    
    33   16   17 1    
    34   17   18 1    
    35   17   86 1    
    36   17   87 1    
    37   18   19 1    
    38   18   37 1    
    39   18   88 1    
    40   19   20 am   BACKBONE|DICT|INTERRES
    41   19   89 1    
    42   20   21 2    
    43   20   22 1    
    44   22   23 1    
    45   22   24 1    
    46   22   90 1    
    47   23   91 1    
    48   23   92 1    
    49   23   93 1    
    50   24   25 am   BACKBONE|DICT|INTERRES
    51   24   94 1    
    52   25   26 2    
    53   25   27 1    
    54   27   28 1    
    55   27   29 1    
    56   27   95 1    
    57   28   96 1    
    58   28   97 1    
    59   28   98 1    
    60   29   30 am   BACKBONE|DICT|INTERRES
    61   29   99 1    
    62   30   31 2    
    63   30   32 1    
    64   32   33 1    
    65   32   34 1    
    66   32  100 1    
    67   33  101 1    
    68   33  102 1    
    69   33  103 1    
    70   34   35 am   BACKBONE|DICT|INTERRES
    71   34  104 1    
    72   35   36 2    
    73   37   38 2    
    74   37   39 am   BACKBONE|DICT|INTERRES
    75   39   40 1    
    76   39  105 1    
    77   40   41 1    
    78   40   42 1    
    79   40  106 1    
    80   41  107 1    
    81   41  108 1    
    82   41  109 1    
    83   42   43 2    
    84   42   44 am   BACKBONE|DICT|INTERRES
    85   44   45 1    
    86   44  110 1    
    87   45   46 1    
    88   45   47 1    
    89   45  111 1    
    90   46  112 1    
    91   46  113 1    
    92   46  114 1    
    93   47   48 2    
    94   47   49 am   BACKBONE|DICT|INTERRES
    95   49   50 1    
    96   49  115 1    
    97   50   51 1    
    98   50   52 1    
    99   50  116 1    
   100   51  117 1    
   101   51  118 1    
   102   51  119 1    
   103   52   53 2    
   104   52   54 am   BACKBONE|DICT|INTERRES
   105   54   55 1    
   106   54  120 1    
   107   55   56 1    
   108   55   57 1    
   109   55  121 1    
   110   56  122 1    
   111   56  123 1    
   112   56  124 1    
   113   57   58 2    
   114   57   59 am   BACKBONE|DICT|INTERRES
   115   59   60 1    
   116   59  125 1    
   117   60   61 1    
   118   60   62 1    
   119   60  126 1    
   120   61  127 1    
   121   61  128 1    
   122   61  129 1    
   123   62   63 2    
   124   62   64 am   BACKBONE|DICT|INTERRES
   125   64   65 1    
   126   64  130 1    
   127   65   66 1    
   128   65   69 1    
   129   65  131 1    
   130   66   67 am   BACKBONE|DICT|INTERRES
   131   66   68 2    
   132   67  132 1    
   133   67  133 1    
   134   69   70 1    
   135   69  134 1    
   136   69  135 1    
   137   70   71 1    
   138   71  136 1    
   139   71  137 1    
@<TRIPOS>SUBSTRUCTURE
     1 UNK         1 GROUP             0       ****    0 ROOT    
