@<TRIPOS>MOLECULE
3R137
137   139    1
SMALL
USER_CHARGES


@<TRIPOS>ATOM
      1 CA         26.1507   -6.6474   -5.1198 C.3       0 UNK        -0.2020 
      2 C          25.8421   -5.7962   -3.8980 C.2       0 UNK         0.4855 
      3 O          24.7256   -5.2911   -3.7744 O.2       0 UNK        -0.5197 
      4 N          26.8271   -5.6284   -3.0035 N.am      1 UNK        -0.4892 
      5 CA         26.7650   -4.8089   -1.7872 C.3       1 UNK         0.0835 
      6 C6         28.0811   -4.8415   -0.9472 C.3       12 UNK        -0.0855 
      7 S7         29.7099   -5.0982   -1.7699 S.3       12 UNK        -0.2931 
      8 C8         29.7301   -4.1049   -3.3054 C.3       12 UNK         0.0378 
      9 C9         30.2805   -2.6868   -3.1703 C.ar      12 UNK        -0.0802 
     10 C10        31.0403   -2.1459   -4.2145 C.ar      12 UNK        -0.0944 
     11 C11        31.5149   -0.8320   -4.1490 C.ar      12 UNK        -0.0787 
     12 C12        31.2356   -0.0557   -3.0222 C.ar      12 UNK        -0.0862 
     13 C13        30.4468   -0.5687   -1.9895 C.ar      12 UNK        -0.0733 
     14 C14        29.9830   -1.8856   -2.0638 C.ar      12 UNK        -0.0832 
     15 C15        30.0367    0.3215   -0.8251 C.3       12 UNK         0.0240 
     16 S16        28.8921    1.6434   -1.3506 S.3       12 UNK        -0.2522 
     17 C17        27.6081    0.7088   -2.2521 C.3       12 UNK        -0.0967 
     18 CA         27.7978    0.7917   -3.7922 C.3       5 UNK         0.0660 
     19 N          27.3785   -0.4365   -4.4758 N.am      5 UNK        -0.4015 
     20 C          27.5648   -0.6999   -5.7774 C.2       4 UNK         0.4946 
     21 O          28.2081    0.0233   -6.5357 O.2       4 UNK        -0.5353 
     22 CA         26.8638   -1.9401   -6.3598 C.3       4 UNK         0.0277 
     23 CB         27.7507   -3.1949   -6.3260 C.3       4 UNK        -0.1981 
     24 N          25.5830   -2.2149   -5.7078 N.am      4 UNK        -0.4209 
     25 C          24.4799   -1.4755   -5.8792 C.2       3 UNK         0.4942 
     26 O          24.4047   -0.5278   -6.6616 O.2       3 UNK        -0.5208 
     27 CA         23.2786   -1.8256   -4.9864 C.3       3 UNK         0.0250 
     28 CB         22.5080   -3.0286   -5.5528 C.3       3 UNK        -0.1990 
     29 N          23.6766   -2.0956   -3.6007 N.am      3 UNK        -0.4232 
     30 C          24.1664   -1.1621   -2.7712 C.2       2 UNK         0.4993 
     31 O          24.3058    0.0200   -3.0842 O.2       2 UNK        -0.5286 
     32 CA         24.6176   -1.6165   -1.3713 C.3       2 UNK         0.0209 
     33 CB         23.4427   -1.5433   -0.3833 C.3       2 UNK        -0.1931 
     34 N          25.2186   -2.9548   -1.3161 N.am      2 UNK        -0.4546 
     35 C          26.2671   -3.3690   -2.0426 C.2       1 UNK         0.5154 
     36 O          26.8203   -2.6701   -2.8909 O.2       1 UNK        -0.5181 
     37 C          27.1135    2.0414   -4.3808 C.2       5 UNK         0.5014 
     38 O          27.7913    3.0327   -4.6544 O.2       5 UNK        -0.5248 
     39 N          25.7910    1.9590   -4.5925 N.am      6 UNK        -0.4434 
     40 CA         24.9828    2.9978   -5.2344 C.3       6 UNK         0.0363 
     41 CB         23.4920    2.6487   -5.1008 C.3       6 UNK        -0.1936 
     42 C          25.3605    3.2281   -6.7081 C.2       6 UNK         0.5081 
     43 O          25.3835    4.3778   -7.1487 O.2       6 UNK        -0.5248 
     44 N          25.6617    2.1443   -7.4388 N.am      7 UNK        -0.4718 
     45 CA         26.1489    2.1945   -8.8207 C.3       7 UNK         0.0273 
     46 CB         26.0751    0.7926   -9.4459 C.3       7 UNK        -0.1935 
     47 C          27.5777    2.7549   -8.9341 C.2       7 UNK         0.5018 
     48 O          27.8807    3.4320   -9.9171 O.2       7 UNK        -0.5186 
     49 N          28.4329    2.4370   -7.9506 N.am      8 UNK        -0.4240 
     50 CA         29.8442    2.8096   -7.7686 C.3       8 UNK         0.0235 
     51 CB         30.0212    4.3370   -7.6844 C.3       8 UNK        -0.2000 
     52 C          30.8101    2.1915   -8.7949 C.2       8 UNK         0.4941 
     53 O          31.9056    1.7750   -8.4145 O.2       8 UNK        -0.5273 
     54 N          30.3823    2.1006  -10.0619 N.am      9 UNK        -0.4262 
     55 CA         31.1160    1.5551  -11.2103 C.3       9 UNK         0.0264 
     56 CB         30.2362    1.6731  -12.4650 C.3       9 UNK        -0.1955 
     57 C          31.6117    0.1073  -11.0390 C.2       9 UNK         0.5031 
     58 O          32.5760   -0.2767  -11.7018 O.2       9 UNK        -0.5390 
     59 N          30.9888   -0.6523  -10.1265 N.am      10 UNK        -0.4204 
     60 CA         31.4105   -1.9863   -9.6890 C.3       10 UNK         0.0237 
     61 CB         30.3964   -2.5119   -8.6606 C.3       10 UNK        -0.1985 
     62 C          32.8374   -2.0340   -9.1050 C.2       10 UNK         0.4970 
     63 O          33.4846   -3.0772   -9.2012 O.2       10 UNK        -0.4914 
     64 N          33.3022   -0.9141   -8.5354 N.am      11 UNK        -0.4285 
     65 CA         34.6767   -0.7208   -8.0513 C.3       11 UNK         0.1007 
     66 C          35.6332   -0.1282   -9.1293 C.2       11 UNK         0.5703 
     67 N          35.2075    0.0973  -10.3677 N.am      11 UNK        -0.7361 
     68 O          36.8037    0.1144   -8.8436 O.2       11 UNK        -0.4986 
     69 C69        34.6934    0.1073   -6.7384 C.3       12 UNK        -0.0947 
     70 S70        34.0081   -0.8222   -5.3273 S.3       12 UNK        -0.2240 
     71 C71        32.2893   -0.2361   -5.3137 C.3       12 UNK         0.0194 
     72 H72        27.1846   -6.9919   -5.1278 H         1 UNK         0.0906 
     73 H73        25.5005   -7.5215   -5.1407 H         1 UNK         0.0906 
     74 H74        25.9781   -6.0728   -6.0296 H         1 UNK         0.0906 
     75 H75        27.7210   -6.0719   -3.1616 H         1 UNK         0.3140 
     76 H76        25.9965   -5.2860   -1.1747 H         1 UNK         0.1085 
     77 H77        28.1571   -3.9668   -0.2986 H         1 UNK         0.0836 
     78 H78        27.9956   -5.6730   -0.2456 H         1 UNK         0.0836 
     79 H79        28.7377   -4.0483   -3.7298 H         1 UNK         0.0731 
     80 H80        30.3307   -4.6557   -4.0310 H         1 UNK         0.0731 
     81 H81        31.2535   -2.7409   -5.0920 H         1 UNK         0.1312 
     82 H82        31.5840    0.9669   -2.9705 H         1 UNK         0.1406 
     83 H83        29.3591   -2.2745   -1.2739 H         1 UNK         0.1631 
     84 H84        30.9254    0.7736   -0.3825 H         1 UNK         0.0717 
     85 H85        29.5632   -0.2641   -0.0355 H         1 UNK         0.0717 
     86 H86        27.6422   -0.3264   -1.9141 H         1 UNK         0.0934 
     87 H87        26.6266    1.0745   -1.9444 H         1 UNK         0.0934 
     88 H88        28.8621    0.8903   -4.0101 H         1 UNK         0.0739 
     89 H89        26.9433   -1.1553   -3.9020 H         1 UNK         0.3093 
     90 H90        26.6662   -1.7148   -7.4095 H         1 UNK         0.0818 
     91 H91        27.5172   -3.8296   -5.4761 H         1 UNK         0.0819 
     92 H92        27.6019   -3.7969   -7.2225 H         1 UNK         0.0819 
     93 H93        28.8113   -2.9486   -6.2736 H         1 UNK         0.0819 
     94 H94        25.5726   -2.9350   -4.9983 H         1 UNK         0.3041 
     95 H95        22.6078   -0.9635   -4.9829 H         1 UNK         0.0784 
     96 H96        22.1837   -2.8359   -6.5764 H         1 UNK         0.0793 
     97 H97        23.1187   -3.9321   -5.5690 H         1 UNK         0.0793 
     98 H98        21.6145   -3.2390   -4.9649 H         1 UNK         0.0793 
     99 H99        23.6351   -3.0562   -3.2857 H         1 UNK         0.3024 
    100 H100       25.3791   -0.9096   -1.0377 H         1 UNK         0.1171 
    101 H101       22.9899   -0.5504   -0.3878 H         1 UNK         0.0786 
    102 H102       23.7682   -1.7422    0.6380 H         1 UNK         0.0786 
    103 H103       22.6590   -2.2597   -0.6329 H         1 UNK         0.0786 
    104 H104       24.8061   -3.5973   -0.6547 H         1 UNK         0.2977 
    105 H105       25.2930    1.1350   -4.2616 H         1 UNK         0.3127 
    106 H106       25.1617    3.9324   -4.6987 H         1 UNK         0.0770 
    107 H107       23.2510    1.7077   -5.5963 H         1 UNK         0.0814 
    108 H108       22.8681    3.4232   -5.5485 H         1 UNK         0.0814 
    109 H109       23.1984    2.5589   -4.0548 H         1 UNK         0.0814 
    110 H110       25.5410    1.2270   -7.0225 H         1 UNK         0.2983 
    111 H111       25.4891    2.8556   -9.3870 H         1 UNK         0.0947 
    112 H112       26.3586    0.8208  -10.4989 H         1 UNK         0.0806 
    113 H113       25.0652    0.3853   -9.3921 H         1 UNK         0.0806 
    114 H114       26.7459    0.0929   -8.9479 H         1 UNK         0.0806 
    115 H115       28.1015    1.7640   -7.2624 H         1 UNK         0.3000 
    116 H116       30.1226    2.3948   -6.7980 H         1 UNK         0.0850 
    117 H117       31.0535    4.5952   -7.4448 H         1 UNK         0.0810 
    118 H118       29.3902    4.7626   -6.9037 H         1 UNK         0.0810 
    119 H119       29.7732    4.8312   -8.6241 H         1 UNK         0.0810 
    120 H120       29.4730    2.5135  -10.2567 H         1 UNK         0.3040 
    121 H121       32.0008    2.1793  -11.3502 H         1 UNK         0.0766 
    122 H122       29.9636    2.7101  -12.6629 H         1 UNK         0.0812 
    123 H123       29.3151    1.0971  -12.3668 H         1 UNK         0.0812 
    124 H124       30.7604    1.3038  -13.3477 H         1 UNK         0.0812 
    125 H125       30.2103   -0.2409   -9.6329 H         1 UNK         0.3205 
    126 H126       31.3925   -2.6412  -10.5625 H         1 UNK         0.0754 
    127 H127       30.6720   -3.5074   -8.3096 H         1 UNK         0.0769 
    128 H128       29.3966   -2.5863   -9.0891 H         1 UNK         0.0769 
    129 H129       30.3390   -1.8606   -7.7874 H         1 UNK         0.0769 
    130 H130       32.7190   -0.0834   -8.5228 H         1 UNK         0.2981 
    131 H131       35.1039   -1.6975   -7.8170 H         1 UNK         0.0541 
    132 H132       34.2596   -0.1205  -10.6540 H         1 UNK         0.3459 
    133 H133       35.8549    0.4727  -11.0420 H         1 UNK         0.3459 
    134 H134       34.1593    1.0507   -6.8643 H         1 UNK         0.0612 
    135 H135       35.7143    0.3746   -6.4602 H         1 UNK         0.0612 
    136 H136       31.7992   -0.5047   -6.2497 H         1 UNK         0.0624 
    137 H137       32.2786    0.8539   -5.2636 H         1 UNK         0.0624 
@<TRIPOS>BOND
     1    1    2 1    
     2    1   72 1    
     3    1   73 1    
     4    1   74 1    
     5    2    3 2    
     6    2    4 am   BACKBONE|DICT|INTERRES
     7    4    5 1    
     8    4   75 1    
     9    5    6 1    
    10    5   35 1    
    11    5   76 1    
    12    6    7 1    
    13    6   77 1    
    14    6   78 1    
    15    7    8 1    
    16    8    9 1    
    17    8   79 1    
    18    8   80 1    
    19    9   10 ar   
    20    9   14 ar   
    21   10   11 ar   
    22   10   81 1    
    23   11   12 ar   
    24   11   71 1    
    25   12   13 ar   
    26   12   82 1    
    27   13   14 ar   
    28   13   15 1    
    29   14   83 1    
    30   15   16 1    
    31   15   84 1    
    32   15   85 1    
    33   16   17 1    
    34   17   18 1    
    35   17   86 1    
    36   17   87 1    
    37   18   19 1    
    38   18   37 1    
    39   18   88 1    
    40   19   20 am   BACKBONE|DICT|INTERRES
    41   19   89 1    
    42   20   21 2    
    43   20   22 1    
    44   22   23 1    
    45   22   24 1    
    46   22   90 1    
    47   23   91 1    
    48   23   92 1    
    49   23   93 1    
    50   24   25 am   BACKBONE|DICT|INTERRES
    51   24   94 1    
    52   25   26 2    
    53   25   27 1    
    54   27   28 1    
    55   27   29 1    
    56   27   95 1    
    57   28   96 1    
    58   28   97 1    
    59   28   98 1    
    60   29   30 am   BACKBONE|DICT|INTERRES
    61   29   99 1    
    62   30   31 2    
    63   30   32 1    
    64   32   33 1    
    65   32   34 1    
    66   32  100 1    
    67   33  101 1    
    68   33  102 1    
    69   33  103 1    
    70   34   35 am   BACKBONE|DICT|INTERRES
    71   34  104 1    
    72   35   36 2    
    73   37   38 2    
    74   37   39 am   BACKBONE|DICT|INTERRES
    75   39   40 1    
    76   39  105 1    
    77   40   41 1    
    78   40   42 1    
    79   40  106 1    
    80   41  107 1    
    81   41  108 1    
    82   41  109 1    
    83   42   43 2    
    84   42   44 am   BACKBONE|DICT|INTERRES
    85   44   45 1    
    86   44  110 1    
    87   45   46 1    
    88   45   47 1    
    89   45  111 1    
    90   46  112 1    
    91   46  113 1    
    92   46  114 1    
    93   47   48 2    
    94   47   49 am   BACKBONE|DICT|INTERRES
    95   49   50 1    
    96   49  115 1    
    97   50   51 1    
    98   50   52 1    
    99   50  116 1    
   100   51  117 1    
   101   51  118 1    
   102   51  119 1    
   103   52   53 2    
   104   52   54 am   BACKBONE|DICT|INTERRES
   105   54   55 1    
   106   54  120 1    
   107   55   56 1    
   108   55   57 1    
   109   55  121 1    
   110   56  122 1    
   111   56  123 1    
   112   56  124 1    
   113   57   58 2    
   114   57   59 am   BACKBONE|DICT|INTERRES
   115   59   60 1    
   116   59  125 1    
   117   60   61 1    
   118   60   62 1    
   119   60  126 1    
   120   61  127 1    
   121   61  128 1    
   122   61  129 1    
   123   62   63 2    
   124   62   64 am   BACKBONE|DICT|INTERRES
   125   64   65 1    
   126   64  130 1    
   127   65   66 1    
   128   65   69 1    
   129   65  131 1    
   130   66   67 am   BACKBONE|DICT|INTERRES
   131   66   68 2    
   132   67  132 1    
   133   67  133 1    
   134   69   70 1    
   135   69  134 1    
   136   69  135 1    
   137   70   71 1    
   138   71  136 1    
   139   71  137 1    
@<TRIPOS>SUBSTRUCTURE
     1 UNK         1 GROUP             0       ****    0 ROOT    
