@<TRIPOS>MOLECULE
3R137
137   139    1
SMALL
USER_CHARGES


@<TRIPOS>ATOM
      1 CA         25.7930   -2.2207    0.6089 C.3       0 UNK        -0.2020 
      2 C          26.9241   -1.6650   -0.2419 C.2       0 UNK         0.4855 
      3 O          27.1628   -0.4574   -0.2156 O.2       0 UNK        -0.5197 
      4 N          27.6052   -2.5381   -0.9992 N.am      1 UNK        -0.4892 
      5 CA         28.7261   -2.2611   -1.9096 C.3       1 UNK         0.0835 
      6 C6         29.0508   -3.4961   -2.7828 C.3       12 UNK        -0.0855 
      7 S7         29.5034   -5.0106   -1.8687 S.3       12 UNK        -0.2931 
      8 C8         31.0650   -5.5342   -2.6793 C.3       12 UNK         0.0378 
      9 C9         31.1081   -5.3493   -4.1990 C.ar      12 UNK        -0.0802 
     10 C10        32.2941   -4.9184   -4.8011 C.ar      12 UNK        -0.0944 
     11 C11        32.3464   -4.6569   -6.1733 C.ar      12 UNK        -0.0787 
     12 C12        31.1911   -4.8119   -6.9469 C.ar      12 UNK        -0.0862 
     13 C13        30.0012   -5.2618   -6.3654 C.ar      12 UNK        -0.0733 
     14 C14        29.9795   -5.5637   -4.9997 C.ar      12 UNK        -0.0832 
     15 C15        28.7484   -5.4502   -7.2146 C.3       12 UNK         0.0240 
     16 S16        27.2912   -4.5812   -6.5395 S.3       12 UNK        -0.2522 
     17 C17        27.5843   -2.8521   -7.0483 C.3       12 UNK        -0.0967 
     18 CA         26.2766   -2.0134   -6.9853 C.3       5 UNK         0.0660 
     19 N          25.7528   -1.9350   -5.6204 N.am      5 UNK        -0.4015 
     20 C          24.4673   -2.0105   -5.2600 C.2       4 UNK         0.4946 
     21 O          23.5377   -2.1393   -6.0566 O.2       4 UNK        -0.5353 
     22 CA         24.1718   -1.8741   -3.7616 C.3       4 UNK         0.0277 
     23 CB         24.6363   -3.1272   -2.9999 C.3       4 UNK        -0.1981 
     24 N          24.8163   -0.6840   -3.1995 N.am      4 UNK        -0.4209 
     25 C          24.2351    0.5203   -3.1003 C.2       3 UNK         0.4942 
     26 O          23.0938    0.7586   -3.4959 O.2       3 UNK        -0.5208 
     27 CA         25.0347    1.6522   -2.4281 C.3       3 UNK         0.0250 
     28 CB         24.5719    1.8368   -0.9734 C.3       3 UNK        -0.1990 
     29 N          26.4800    1.4182   -2.4409 N.am      3 UNK        -0.4232 
     30 C          27.2923    1.7717   -3.4480 C.2       2 UNK         0.4993 
     31 O          26.9215    2.4028   -4.4371 O.2       2 UNK        -0.5286 
     32 CA         28.7661    1.3292   -3.3577 C.3       2 UNK         0.0209 
     33 CB         29.6373    2.4621   -2.7947 C.3       2 UNK        -0.1931 
     34 N          28.9848    0.1095   -2.5690 N.am      2 UNK        -0.4546 
     35 C          28.4316   -1.0768   -2.8509 C.2       1 UNK         0.5154 
     36 O          27.6757   -1.2539   -3.8067 O.2       1 UNK        -0.5181 
     37 C          26.4490   -0.5873   -7.5487 C.2       5 UNK         0.5014 
     38 O          27.4372   -0.3064   -8.2273 O.2       5 UNK        -0.5248 
     39 N          25.4812    0.2982   -7.2654 N.am      6 UNK        -0.4434 
     40 CA         25.4931    1.7319   -7.5800 C.3       6 UNK         0.0363 
     41 CB         24.2716    2.3960   -6.9248 C.3       6 UNK        -0.1936 
     42 C          25.5551    2.0722   -9.0803 C.2       6 UNK         0.5081 
     43 O          25.9508    3.1855   -9.4248 O.2       6 UNK        -0.5248 
     44 N          25.1918    1.1149   -9.9461 N.am      7 UNK        -0.4718 
     45 CA         25.3643    1.2004  -11.3994 C.3       7 UNK         0.0273 
     46 CB         24.6075    0.0433  -12.0708 C.3       7 UNK        -0.1935 
     47 C          26.8448    1.2003  -11.8274 C.2       7 UNK         0.5018 
     48 O          27.1774    1.8236  -12.8362 O.2       7 UNK        -0.5186 
     49 N          27.6991    0.5189  -11.0512 N.am      8 UNK        -0.4240 
     50 CA         29.1551    0.5435  -11.1920 C.3       8 UNK         0.0235 
     51 CB         29.7212   -0.8566  -10.8982 C.3       8 UNK        -0.2000 
     52 C          29.7756    1.5822  -10.2447 C.2       8 UNK         0.4941 
     53 O          30.7161    2.2708  -10.6434 O.2       8 UNK        -0.5273 
     54 N          29.2325    1.6708   -9.0199 N.am      9 UNK        -0.4262 
     55 CA         29.7024    2.4698   -7.8849 C.3       9 UNK         0.0264 
     56 CB         29.5961    3.9825   -8.1823 C.3       9 UNK        -0.1955 
     57 C          31.0955    2.0007   -7.4222 C.2       9 UNK         0.5031 
     58 O          31.3757    0.8019   -7.5053 O.2       9 UNK        -0.5390 
     59 N          31.9269    2.9291   -6.9236 N.am      10 UNK        -0.4204 
     60 CA         33.2926    2.7226   -6.4233 C.3       10 UNK         0.0237 
     61 CB         34.2575    2.4039   -7.5887 C.3       10 UNK        -0.1985 
     62 C          33.3381    1.6870   -5.2840 C.2       10 UNK         0.4970 
     63 O          33.0744    2.0465   -4.1364 O.2       10 UNK        -0.4914 
     64 N          33.6522    0.4321   -5.6236 N.am      11 UNK        -0.4285 
     65 CA         33.5662   -0.7324   -4.7349 C.3       11 UNK         0.1007 
     66 C          32.1161   -1.1262   -4.3333 C.2       11 UNK         0.5703 
     67 N          31.1039   -0.8197   -5.1375 N.am      11 UNK        -0.7361 
     68 O          31.9128   -1.6927   -3.2631 O.2       11 UNK        -0.4986 
     69 C69        34.3564   -1.9365   -5.3111 C.3       12 UNK        -0.0947 
     70 S70        33.8231   -2.4363   -6.9894 S.3       12 UNK        -0.2240 
     71 C71        33.6574   -4.2413   -6.8274 C.3       12 UNK         0.0194 
     72 H72        25.9810   -2.0140    1.6621 H         1 UNK         0.0906 
     73 H73        24.8505   -1.7486    0.3325 H         1 UNK         0.0906 
     74 H74        25.6813   -3.2982    0.4891 H         1 UNK         0.0906 
     75 H75        27.3567   -3.5162   -0.9477 H         1 UNK         0.3140 
     76 H76        29.6034   -2.0197   -1.3063 H         1 UNK         0.1085 
     77 H77        28.2004   -3.7552   -3.4175 H         1 UNK         0.0836 
     78 H78        29.8567   -3.2357   -3.4679 H         1 UNK         0.0836 
     79 H79        31.2483   -6.5837   -2.4463 H         1 UNK         0.0731 
     80 H80        31.8767   -4.9698   -2.2172 H         1 UNK         0.0731 
     81 H81        33.1790   -4.7780   -4.1964 H         1 UNK         0.1312 
     82 H82        31.2262   -4.5957   -8.0060 H         1 UNK         0.1406 
     83 H83        29.0616   -5.9167   -4.5499 H         1 UNK         0.1631 
     84 H84        28.5231   -6.5163   -7.2613 H         1 UNK         0.0717 
     85 H85        28.9161   -5.1285   -8.2436 H         1 UNK         0.0717 
     86 H86        28.3586   -2.4204   -6.4108 H         1 UNK         0.0934 
     87 H87        27.9872   -2.8581   -8.0629 H         1 UNK         0.0934 
     88 H88        25.5417   -2.5040   -7.6270 H         1 UNK         0.0739 
     89 H89        26.4558   -1.7587   -4.9017 H         1 UNK         0.3093 
     90 H90        23.0890   -1.7960   -3.6396 H         1 UNK         0.0818 
     91 H91        24.3689   -3.0699   -1.9452 H         1 UNK         0.0819 
     92 H92        24.1639   -4.0239   -3.4032 H         1 UNK         0.0819 
     93 H93        25.7146   -3.2720   -3.0679 H         1 UNK         0.0819 
     94 H94        25.7901   -0.7728   -2.9401 H         1 UNK         0.3041 
     95 H95        24.8146    2.5748   -2.9700 H         1 UNK         0.0784 
     96 H96        23.5033    2.0518   -0.9275 H         1 UNK         0.0793 
     97 H97        24.7504    0.9428   -0.3747 H         1 UNK         0.0793 
     98 H98        25.0896    2.6686   -0.4955 H         1 UNK         0.0793 
     99 H99        26.8660    0.8945   -1.6591 H         1 UNK         0.3024 
    100 H100       29.0947    1.1228   -4.3786 H         1 UNK         0.1171 
    101 H101       30.6935    2.1932   -2.8086 H         1 UNK         0.0786 
    102 H102       29.5287    3.3705   -3.3890 H         1 UNK         0.0786 
    103 H103       29.3654    2.7080   -1.7674 H         1 UNK         0.0786 
    104 H104       29.5677    0.1954   -1.7485 H         1 UNK         0.2977 
    105 H105       24.6886   -0.0350   -6.7342 H         1 UNK         0.3127 
    106 H106       26.3922    2.1536   -7.1263 H         1 UNK         0.0770 
    107 H107       23.3353    1.9858   -7.3048 H         1 UNK         0.0814 
    108 H108       24.2605    3.4699   -7.1168 H         1 UNK         0.0814 
    109 H109       24.2839    2.2655   -5.8424 H         1 UNK         0.0814 
    110 H110       24.8535    0.2396   -9.5739 H         1 UNK         0.2983 
    111 H111       24.9251    2.1417  -11.7377 H         1 UNK         0.0947 
    112 H112       24.6994    0.0966  -13.1566 H         1 UNK         0.0806 
    113 H113       23.5434    0.0752  -11.8361 H         1 UNK         0.0806 
    114 H114       24.9927   -0.9283  -11.7589 H         1 UNK         0.0806 
    115 H115       27.3404    0.0738  -10.2137 H         1 UNK         0.3000 
    116 H116       29.4281    0.8121  -12.2150 H         1 UNK         0.0850 
    117 H117       30.8065   -0.8671  -11.0082 H         1 UNK         0.0810 
    118 H118       29.3173   -1.5998  -11.5856 H         1 UNK         0.0810 
    119 H119       29.4960   -1.1819   -9.8815 H         1 UNK         0.0810 
    120 H120       28.5265    0.9774   -8.7771 H         1 UNK         0.3040 
    121 H121       29.0209    2.2453   -7.0629 H         1 UNK         0.0766 
    122 H122       30.3335    4.3089   -8.9166 H         1 UNK         0.0812 
    123 H123       29.7359    4.5779   -7.2796 H         1 UNK         0.0812 
    124 H124       28.6095    4.2328   -8.5734 H         1 UNK         0.0812 
    125 H125       31.5860    3.8785   -6.8690 H         1 UNK         0.3205 
    126 H126       33.6113    3.6706   -5.9869 H         1 UNK         0.0754 
    127 H127       34.3044    3.2357   -8.2918 H         1 UNK         0.0769 
    128 H128       33.9564    1.5200   -8.1522 H         1 UNK         0.0769 
    129 H129       35.2719    2.2351   -7.2247 H         1 UNK         0.0769 
    130 H130       33.7773    0.2203   -6.6028 H         1 UNK         0.2981 
    131 H131       34.0623   -0.4495   -3.8045 H         1 UNK         0.0541 
    132 H132       31.2777   -0.3455   -6.0208 H         1 UNK         0.3459 
    133 H133       30.1688   -1.0836   -4.8823 H         1 UNK         0.3459 
    134 H134       34.3050   -2.7852   -4.6289 H         1 UNK         0.0612 
    135 H135       35.4146   -1.6779   -5.3700 H         1 UNK         0.0612 
    136 H136       33.7182   -4.6822   -7.8235 H         1 UNK         0.0624 
    137 H137       34.5085   -4.6389   -6.2723 H         1 UNK         0.0624 
@<TRIPOS>BOND
     1    1    2 1    
     2    1   72 1    
     3    1   73 1    
     4    1   74 1    
     5    2    3 2    
     6    2    4 am   BACKBONE|DICT|INTERRES
     7    4    5 1    
     8    4   75 1    
     9    5    6 1    
    10    5   35 1    
    11    5   76 1    
    12    6    7 1    
    13    6   77 1    
    14    6   78 1    
    15    7    8 1    
    16    8    9 1    
    17    8   79 1    
    18    8   80 1    
    19    9   10 ar   
    20    9   14 ar   
    21   10   11 ar   
    22   10   81 1    
    23   11   12 ar   
    24   11   71 1    
    25   12   13 ar   
    26   12   82 1    
    27   13   14 ar   
    28   13   15 1    
    29   14   83 1    
    30   15   16 1    
    31   15   84 1    
    32   15   85 1    
    33   16   17 1    
    34   17   18 1    
    35   17   86 1    
    36   17   87 1    
    37   18   19 1    
    38   18   37 1    
    39   18   88 1    
    40   19   20 am   BACKBONE|DICT|INTERRES
    41   19   89 1    
    42   20   21 2    
    43   20   22 1    
    44   22   23 1    
    45   22   24 1    
    46   22   90 1    
    47   23   91 1    
    48   23   92 1    
    49   23   93 1    
    50   24   25 am   BACKBONE|DICT|INTERRES
    51   24   94 1    
    52   25   26 2    
    53   25   27 1    
    54   27   28 1    
    55   27   29 1    
    56   27   95 1    
    57   28   96 1    
    58   28   97 1    
    59   28   98 1    
    60   29   30 am   BACKBONE|DICT|INTERRES
    61   29   99 1    
    62   30   31 2    
    63   30   32 1    
    64   32   33 1    
    65   32   34 1    
    66   32  100 1    
    67   33  101 1    
    68   33  102 1    
    69   33  103 1    
    70   34   35 am   BACKBONE|DICT|INTERRES
    71   34  104 1    
    72   35   36 2    
    73   37   38 2    
    74   37   39 am   BACKBONE|DICT|INTERRES
    75   39   40 1    
    76   39  105 1    
    77   40   41 1    
    78   40   42 1    
    79   40  106 1    
    80   41  107 1    
    81   41  108 1    
    82   41  109 1    
    83   42   43 2    
    84   42   44 am   BACKBONE|DICT|INTERRES
    85   44   45 1    
    86   44  110 1    
    87   45   46 1    
    88   45   47 1    
    89   45  111 1    
    90   46  112 1    
    91   46  113 1    
    92   46  114 1    
    93   47   48 2    
    94   47   49 am   BACKBONE|DICT|INTERRES
    95   49   50 1    
    96   49  115 1    
    97   50   51 1    
    98   50   52 1    
    99   50  116 1    
   100   51  117 1    
   101   51  118 1    
   102   51  119 1    
   103   52   53 2    
   104   52   54 am   BACKBONE|DICT|INTERRES
   105   54   55 1    
   106   54  120 1    
   107   55   56 1    
   108   55   57 1    
   109   55  121 1    
   110   56  122 1    
   111   56  123 1    
   112   56  124 1    
   113   57   58 2    
   114   57   59 am   BACKBONE|DICT|INTERRES
   115   59   60 1    
   116   59  125 1    
   117   60   61 1    
   118   60   62 1    
   119   60  126 1    
   120   61  127 1    
   121   61  128 1    
   122   61  129 1    
   123   62   63 2    
   124   62   64 am   BACKBONE|DICT|INTERRES
   125   64   65 1    
   126   64  130 1    
   127   65   66 1    
   128   65   69 1    
   129   65  131 1    
   130   66   67 am   BACKBONE|DICT|INTERRES
   131   66   68 2    
   132   67  132 1    
   133   67  133 1    
   134   69   70 1    
   135   69  134 1    
   136   69  135 1    
   137   70   71 1    
   138   71  136 1    
   139   71  137 1    
@<TRIPOS>SUBSTRUCTURE
     1 UNK         1 GROUP             0       ****    0 ROOT    
