@<TRIPOS>MOLECULE
3R137
137   139    1
SMALL
USER_CHARGES


@<TRIPOS>ATOM
      1 CA         31.3080   -0.8771   -1.1915 C.3       0 UNK        -0.2020 
      2 C          30.2971   -0.3263   -0.1968 C.2       0 UNK         0.4855 
      3 O          30.5826    0.6718    0.4617 O.2       0 UNK        -0.5197 
      4 N          29.1106   -0.9222   -0.0456 N.am      1 UNK        -0.4892 
      5 CA         28.5498   -2.0821   -0.7418 C.3       1 UNK         0.0835 
      6 C6         29.0444   -3.4182   -0.1225 C.3       12 UNK        -0.0855 
      7 S7         28.5052   -4.9220   -1.0159 S.3       12 UNK        -0.2931 
      8 C8         30.0225   -5.4872   -1.8484 C.3       12 UNK         0.0378 
      9 C9         30.2776   -4.7309   -3.1439 C.ar      12 UNK        -0.0802 
     10 C10        31.2556   -3.7341   -3.1977 C.ar      12 UNK        -0.0944 
     11 C11        31.5123   -3.0528   -4.3911 C.ar      12 UNK        -0.0787 
     12 C12        30.7879   -3.3915   -5.5365 C.ar      12 UNK        -0.0862 
     13 C13        29.8054   -4.3849   -5.5046 C.ar      12 UNK        -0.0733 
     14 C14        29.5592   -5.0559   -4.3003 C.ar      12 UNK        -0.0832 
     15 C15        29.0764   -4.7399   -6.8006 C.3       12 UNK         0.0240 
     16 S16        27.3312   -5.2415   -6.6130 S.3       12 UNK        -0.2522 
     17 C17        26.5577   -3.7651   -5.8781 C.3       12 UNK        -0.0967 
     18 CA         26.1640   -2.6821   -6.9223 C.3       5 UNK         0.0660 
     19 N          24.8715   -2.0712   -6.6120 N.am      5 UNK        -0.4015 
     20 C          24.1109   -1.3975   -7.4854 C.2       4 UNK         0.4946 
     21 O          24.3748   -1.2851   -8.6826 O.2       4 UNK        -0.5353 
     22 CA         22.8433   -0.7224   -6.9302 C.3       4 UNK         0.0277 
     23 CB         21.6286   -1.6518   -7.0842 C.3       4 UNK        -0.1981 
     24 N          22.9648   -0.3090   -5.5282 N.am      4 UNK        -0.4209 
     25 C          23.7841    0.6598   -5.0959 C.2       3 UNK         0.4942 
     26 O          24.5242    1.3117   -5.8309 O.2       3 UNK        -0.5208 
     27 CA         23.8283    0.9039   -3.5786 C.3       3 UNK         0.0250 
     28 CB         22.6270    1.7519   -3.1305 C.3       3 UNK        -0.1990 
     29 N          23.9077   -0.3154   -2.7621 N.am      3 UNK        -0.4232 
     30 C          24.8343   -1.2736   -2.8998 C.2       2 UNK         0.4993 
     31 O          25.6419   -1.3238   -3.8306 O.2       2 UNK        -0.5286 
     32 CA         24.8797   -2.3732   -1.8319 C.3       2 UNK         0.0209 
     33 CB         24.2106   -3.6593   -2.3410 C.3       2 UNK        -0.1931 
     34 N          26.2827   -2.6444   -1.5193 N.am      2 UNK        -0.4546 
     35 C          27.0170   -1.8962   -0.6891 C.2       1 UNK         0.5154 
     36 O          26.5254   -1.0568    0.0745 O.2       1 UNK        -0.5181 
     37 C          27.2355   -1.5839   -7.0256 C.2       5 UNK         0.5014 
     38 O          27.9345   -1.4950   -8.0356 O.2       5 UNK        -0.5248 
     39 N          27.3221   -0.7537   -5.9774 N.am      6 UNK        -0.4434 
     40 CA         28.3138    0.3055   -5.8234 C.3       6 UNK         0.0363 
     41 CB         28.2175    0.9039   -4.4118 C.3       6 UNK        -0.1936 
     42 C          28.2258    1.3953   -6.8990 C.2       6 UNK         0.5081 
     43 O          29.2655    1.8101   -7.4102 O.2       6 UNK        -0.5248 
     44 N          27.0023    1.8116   -7.2560 N.am      7 UNK        -0.4718 
     45 CA         26.7473    2.7910   -8.3171 C.3       7 UNK         0.0273 
     46 CB         25.2705    3.2146   -8.2866 C.3       7 UNK        -0.1935 
     47 C          27.1291    2.2857   -9.7187 C.2       7 UNK         0.5018 
     48 O          27.5412    3.0917  -10.5536 O.2       7 UNK        -0.5186 
     49 N          26.9922    0.9729   -9.9513 N.am      8 UNK        -0.4240 
     50 CA         27.3969    0.3163  -11.1936 C.3       8 UNK         0.0235 
     51 CB         26.6471   -1.0178  -11.3436 C.3       8 UNK        -0.2000 
     52 C          28.9170    0.1030  -11.2532 C.2       8 UNK         0.4941 
     53 O          29.5241    0.3707  -12.2909 O.2       8 UNK        -0.5273 
     54 N          29.4995   -0.3824  -10.1485 N.am      9 UNK        -0.4262 
     55 CA         30.9232   -0.6995  -10.0346 C.3       9 UNK         0.0264 
     56 CB         31.1415   -1.5938   -8.8076 C.3       9 UNK        -0.1955 
     57 C          31.8352    0.5331   -9.9474 C.2       9 UNK         0.5031 
     58 O          32.9436    0.4817  -10.4824 O.2       9 UNK        -0.5390 
     59 N          31.3736    1.5882   -9.2562 N.am      10 UNK        -0.4204 
     60 CA         32.1203    2.7933   -8.8748 C.3       10 UNK         0.0237 
     61 CB         32.5072    3.6306  -10.1132 C.3       10 UNK        -0.1985 
     62 C          33.3178    2.4351   -7.9734 C.2       10 UNK         0.4970 
     63 O          34.4691    2.6378   -8.3648 O.2       10 UNK        -0.4914 
     64 N          33.0043    1.8573   -6.8042 N.am      11 UNK        -0.4285 
     65 CA         33.9492    1.3349   -5.8005 C.3       11 UNK         0.1007 
     66 C          35.0466    2.3511   -5.3751 C.2       11 UNK         0.5703 
     67 N          36.2834    1.9006   -5.2119 N.am      11 UNK        -0.7361 
     68 O          34.7736    3.5280   -5.1444 O.2       11 UNK        -0.4986 
     69 C69        33.2155    0.8087   -4.5363 C.3       12 UNK        -0.0947 
     70 S70        31.8579   -0.3541   -4.8911 S.3       12 UNK        -0.2240 
     71 C71        32.5806   -1.9662   -4.4532 C.3       12 UNK         0.0194 
     72 H72        30.8400   -1.1067   -2.1461 H         1 UNK         0.0906 
     73 H73        32.0905   -0.1436   -1.3852 H         1 UNK         0.0906 
     74 H74        31.7819   -1.7721   -0.7924 H         1 UNK         0.0906 
     75 H75        28.4236   -0.4943    0.5665 H         1 UNK         0.3140 
     76 H76        28.8335   -2.0446   -1.7951 H         1 UNK         0.1085 
     77 H77        28.7031   -3.4996    0.9112 H         1 UNK         0.0836 
     78 H78        30.1331   -3.4210   -0.0674 H         1 UNK         0.0836 
     79 H79        30.8736   -5.4069   -1.1703 H         1 UNK         0.0731 
     80 H80        29.9190   -6.5500   -2.0722 H         1 UNK         0.0731 
     81 H81        31.8270   -3.5009   -2.3114 H         1 UNK         0.1312 
     82 H82        31.0002   -2.8782   -6.4605 H         1 UNK         0.1406 
     83 H83        28.8151   -5.8397   -4.2605 H         1 UNK         0.1631 
     84 H84        29.6160   -5.5576   -7.2795 H         1 UNK         0.0717 
     85 H85        29.1145   -3.9034   -7.4987 H         1 UNK         0.0717 
     86 H86        25.6616   -4.1356   -5.3796 H         1 UNK         0.0934 
     87 H87        27.1827   -3.3744   -5.0721 H         1 UNK         0.0934 
     88 H88        26.0741   -3.1519   -7.9046 H         1 UNK         0.0739 
     89 H89        24.6238   -2.0339   -5.6324 H         1 UNK         0.3093 
     90 H90        22.6655    0.1743   -7.5282 H         1 UNK         0.0818 
     91 H91        20.7073   -1.1558   -6.7780 H         1 UNK         0.0819 
     92 H92        21.5000   -1.9552   -8.1243 H         1 UNK         0.0819 
     93 H93        21.7355   -2.5609   -6.4909 H         1 UNK         0.0819 
     94 H94        22.3959   -0.7968   -4.8513 H         1 UNK         0.3041 
     95 H95        24.7358    1.4771   -3.3771 H         1 UNK         0.0784 
     96 H96        22.5557    2.6689   -3.7176 H         1 UNK         0.0793 
     97 H97        21.6845    1.2156   -3.2479 H         1 UNK         0.0793 
     98 H98        22.7173    2.0473   -2.0850 H         1 UNK         0.0793 
     99 H99        23.2731   -0.3669   -1.9778 H         1 UNK         0.3024 
    100 H100       24.3592   -2.0351   -0.9327 H         1 UNK         0.1171 
    101 H101       23.1637   -3.4837   -2.5920 H         1 UNK         0.0786 
    102 H102       24.2344   -4.4416   -1.5821 H         1 UNK         0.0786 
    103 H103       24.7009   -4.0480   -3.2331 H         1 UNK         0.0786 
    104 H104       26.7553   -3.3175   -2.1066 H         1 UNK         0.2977 
    105 H105       26.6917   -0.9025   -5.1889 H         1 UNK         0.3127 
    106 H106       29.2880   -0.1686   -5.9314 H         1 UNK         0.0770 
    107 H107       27.2396    1.3517   -4.2310 H         1 UNK         0.0814 
    108 H108       28.9695    1.6804   -4.2654 H         1 UNK         0.0814 
    109 H109       28.3846    0.1436   -3.6485 H         1 UNK         0.0814 
    110 H110       26.1891    1.4541   -6.7585 H         1 UNK         0.2983 
    111 H111       27.3595    3.6718   -8.1111 H         1 UNK         0.0947 
    112 H112       25.0595    3.9580   -9.0566 H         1 UNK         0.0806 
    113 H113       25.0058    3.6586   -7.3268 H         1 UNK         0.0806 
    114 H114       24.6051    2.3671   -8.4577 H         1 UNK         0.0806 
    115 H115       26.6614    0.3785   -9.2032 H         1 UNK         0.3000 
    116 H116       27.1154    0.9547  -12.0341 H         1 UNK         0.0850 
    117 H117       26.9233   -1.5182  -12.2726 H         1 UNK         0.0810 
    118 H118       25.5680   -0.8640  -11.3658 H         1 UNK         0.0810 
    119 H119       26.8663   -1.7042  -10.5250 H         1 UNK         0.0810 
    120 H120       28.9121   -0.6327   -9.3545 H         1 UNK         0.3040 
    121 H121       31.2154   -1.2652  -10.9220 H         1 UNK         0.0766 
    122 H122       32.1942   -1.8549   -8.6904 H         1 UNK         0.0812 
    123 H123       30.5822   -2.5248   -8.8961 H         1 UNK         0.0812 
    124 H124       30.8229   -1.0915   -7.8932 H         1 UNK         0.0812 
    125 H125       30.4627    1.5055   -8.8072 H         1 UNK         0.3205 
    126 H126       31.4427    3.3993   -8.2712 H         1 UNK         0.0754 
    127 H127       32.9810    4.5665   -9.8149 H         1 UNK         0.0769 
    128 H128       31.6290    3.8851  -10.7067 H         1 UNK         0.0769 
    129 H129       33.2088    3.1060  -10.7624 H         1 UNK         0.0769 
    130 H130       32.0283    1.7261   -6.5813 H         1 UNK         0.2981 
    131 H131       34.4457    0.4860   -6.2741 H         1 UNK         0.0541 
    132 H132       36.5151    0.9347   -5.3846 H         1 UNK         0.3459 
    133 H133       37.0032    2.5429   -4.9194 H         1 UNK         0.3459 
    134 H134       32.7818    1.6417   -3.9795 H         1 UNK         0.0612 
    135 H135       33.9236    0.3316   -3.8564 H         1 UNK         0.0612 
    136 H136       33.3347   -2.2356   -5.1938 H         1 UNK         0.0624 
    137 H137       33.0955   -1.8831   -3.4951 H         1 UNK         0.0624 
@<TRIPOS>BOND
     1    1    2 1    
     2    1   72 1    
     3    1   73 1    
     4    1   74 1    
     5    2    3 2    
     6    2    4 am   BACKBONE|DICT|INTERRES
     7    4    5 1    
     8    4   75 1    
     9    5    6 1    
    10    5   35 1    
    11    5   76 1    
    12    6    7 1    
    13    6   77 1    
    14    6   78 1    
    15    7    8 1    
    16    8    9 1    
    17    8   79 1    
    18    8   80 1    
    19    9   10 ar   
    20    9   14 ar   
    21   10   11 ar   
    22   10   81 1    
    23   11   12 ar   
    24   11   71 1    
    25   12   13 ar   
    26   12   82 1    
    27   13   14 ar   
    28   13   15 1    
    29   14   83 1    
    30   15   16 1    
    31   15   84 1    
    32   15   85 1    
    33   16   17 1    
    34   17   18 1    
    35   17   86 1    
    36   17   87 1    
    37   18   19 1    
    38   18   37 1    
    39   18   88 1    
    40   19   20 am   BACKBONE|DICT|INTERRES
    41   19   89 1    
    42   20   21 2    
    43   20   22 1    
    44   22   23 1    
    45   22   24 1    
    46   22   90 1    
    47   23   91 1    
    48   23   92 1    
    49   23   93 1    
    50   24   25 am   BACKBONE|DICT|INTERRES
    51   24   94 1    
    52   25   26 2    
    53   25   27 1    
    54   27   28 1    
    55   27   29 1    
    56   27   95 1    
    57   28   96 1    
    58   28   97 1    
    59   28   98 1    
    60   29   30 am   BACKBONE|DICT|INTERRES
    61   29   99 1    
    62   30   31 2    
    63   30   32 1    
    64   32   33 1    
    65   32   34 1    
    66   32  100 1    
    67   33  101 1    
    68   33  102 1    
    69   33  103 1    
    70   34   35 am   BACKBONE|DICT|INTERRES
    71   34  104 1    
    72   35   36 2    
    73   37   38 2    
    74   37   39 am   BACKBONE|DICT|INTERRES
    75   39   40 1    
    76   39  105 1    
    77   40   41 1    
    78   40   42 1    
    79   40  106 1    
    80   41  107 1    
    81   41  108 1    
    82   41  109 1    
    83   42   43 2    
    84   42   44 am   BACKBONE|DICT|INTERRES
    85   44   45 1    
    86   44  110 1    
    87   45   46 1    
    88   45   47 1    
    89   45  111 1    
    90   46  112 1    
    91   46  113 1    
    92   46  114 1    
    93   47   48 2    
    94   47   49 am   BACKBONE|DICT|INTERRES
    95   49   50 1    
    96   49  115 1    
    97   50   51 1    
    98   50   52 1    
    99   50  116 1    
   100   51  117 1    
   101   51  118 1    
   102   51  119 1    
   103   52   53 2    
   104   52   54 am   BACKBONE|DICT|INTERRES
   105   54   55 1    
   106   54  120 1    
   107   55   56 1    
   108   55   57 1    
   109   55  121 1    
   110   56  122 1    
   111   56  123 1    
   112   56  124 1    
   113   57   58 2    
   114   57   59 am   BACKBONE|DICT|INTERRES
   115   59   60 1    
   116   59  125 1    
   117   60   61 1    
   118   60   62 1    
   119   60  126 1    
   120   61  127 1    
   121   61  128 1    
   122   61  129 1    
   123   62   63 2    
   124   62   64 am   BACKBONE|DICT|INTERRES
   125   64   65 1    
   126   64  130 1    
   127   65   66 1    
   128   65   69 1    
   129   65  131 1    
   130   66   67 am   BACKBONE|DICT|INTERRES
   131   66   68 2    
   132   67  132 1    
   133   67  133 1    
   134   69   70 1    
   135   69  134 1    
   136   69  135 1    
   137   70   71 1    
   138   71  136 1    
   139   71  137 1    
@<TRIPOS>SUBSTRUCTURE
     1 UNK         1 GROUP             0       ****    0 ROOT    
