@<TRIPOS>MOLECULE
3R137
137   139    1
SMALL
USER_CHARGES


@<TRIPOS>ATOM
      1 CA         27.5234   -4.8730    3.2859 C.3       0 UNK        -0.2020 
      2 C          28.1888   -4.2783    2.0536 C.2       0 UNK         0.4855 
      3 O          29.3934   -4.0231    2.0743 O.2       0 UNK        -0.5197 
      4 N          27.4126   -4.0550    0.9885 N.am      1 UNK        -0.4892 
      5 CA         27.8522   -3.4459   -0.2689 C.3       1 UNK         0.0835 
      6 C6         27.6857   -4.4084   -1.4695 C.3       12 UNK        -0.0855 
      7 S7         28.7420   -5.8964   -1.3574 S.3       12 UNK        -0.2931 
      8 C8         30.4062   -5.2525   -1.7613 C.3       12 UNK         0.0378 
      9 C9         30.4368   -4.4031   -3.0272 C.ar      12 UNK        -0.0802 
     10 C10        31.0081   -3.1260   -3.0028 C.ar      12 UNK        -0.0944 
     11 C11        30.9924   -2.3127   -4.1410 C.ar      12 UNK        -0.0787 
     12 C12        30.3758   -2.7877   -5.3038 C.ar      12 UNK        -0.0862 
     13 C13        29.8117   -4.0655   -5.3469 C.ar      12 UNK        -0.0733 
     14 C14        29.8689   -4.8782   -4.2132 C.ar      12 UNK        -0.0832 
     15 C15        29.1270   -4.5612   -6.6130 C.3       12 UNK         0.0240 
     16 S16        27.3492   -4.9048   -6.3793 S.3       12 UNK        -0.2522 
     17 C17        26.6897   -3.3380   -5.7124 C.3       12 UNK        -0.0967 
     18 CA         26.4210   -2.2739   -6.8111 C.3       5 UNK         0.0660 
     19 N          25.1626   -1.5522   -6.6017 N.am      5 UNK        -0.4015 
     20 C          24.6183   -0.6977   -7.4827 C.2       4 UNK         0.4946 
     21 O          25.0952   -0.4661   -8.5931 O.2       4 UNK        -0.5353 
     22 CA         23.3453    0.0526   -7.0557 C.3       4 UNK         0.0277 
     23 CB         22.0977   -0.6426   -7.6233 C.3       4 UNK        -0.1981 
     24 N          23.2072    0.1926   -5.6044 N.am      4 UNK        -0.4209 
     25 C          24.0201    0.9155   -4.8213 C.2       3 UNK         0.4942 
     26 O          24.9576    1.5891   -5.2552 O.2       3 UNK        -0.5208 
     27 CA         23.7407    0.8754   -3.3035 C.3       3 UNK         0.0250 
     28 CB         22.8183   -0.2876   -2.8679 C.3       3 UNK        -0.1990 
     29 N          24.9594    0.8626   -2.4854 N.am      3 UNK        -0.4232 
     30 C          25.9878    0.0037   -2.5582 C.2       2 UNK         0.4993 
     31 O          26.1097   -0.8575   -3.4355 O.2       2 UNK        -0.5286 
     32 CA         27.0846    0.1445   -1.4793 C.3       2 UNK         0.0209 
     33 CB         26.6470    0.9371   -0.2237 C.3       2 UNK        -0.1931 
     34 N          27.6595   -1.1547   -1.1059 N.am      2 UNK        -0.4546 
     35 C          27.0267   -2.1687   -0.4969 C.2       1 UNK         0.5154 
     36 O          25.8476   -2.1356   -0.1315 O.2       1 UNK        -0.5181 
     37 C          27.5982   -1.2919   -6.9461 C.2       5 UNK         0.5014 
     38 O          28.3729   -1.4006   -7.8968 O.2       5 UNK        -0.5248 
     39 N          27.6793   -0.3208   -6.0230 N.am      6 UNK        -0.4434 
     40 CA         28.6789    0.7497   -6.0427 C.3       6 UNK         0.0363 
     41 CB         28.5698    1.6057   -4.7745 C.3       6 UNK        -0.1936 
     42 C          28.6032    1.6371   -7.2904 C.2       6 UNK         0.5081 
     43 O          29.6497    2.0277   -7.8069 O.2       6 UNK        -0.5248 
     44 N          27.3807    1.9161   -7.7617 N.am      7 UNK        -0.4718 
     45 CA         27.1288    2.6536   -8.9998 C.3       7 UNK         0.0273 
     46 CB         25.6478    3.0587   -9.0726 C.3       7 UNK        -0.1935 
     47 C          27.5478    1.8578  -10.2474 C.2       7 UNK         0.5018 
     48 O          28.1938    2.4227  -11.1299 O.2       7 UNK        -0.5186 
     49 N          27.1929    0.5651  -10.2892 N.am      8 UNK        -0.4240 
     50 CA         27.5216   -0.3572  -11.3787 C.3       8 UNK         0.0235 
     51 CB         26.7325   -1.6654  -11.2051 C.3       8 UNK        -0.2000 
     52 C          29.0273   -0.6436  -11.4952 C.2       8 UNK         0.4941 
     53 O          29.5647   -0.6025  -12.6027 O.2       8 UNK        -0.5273 
     54 N          29.6807   -0.9233  -10.3592 N.am      9 UNK        -0.4262 
     55 CA         31.1175   -1.2051  -10.2844 C.3       9 UNK         0.0264 
     56 CB         31.4101   -1.9754   -8.9894 C.3       9 UNK        -0.1955 
     57 C          31.9977    0.0546  -10.3546 C.2       9 UNK         0.5031 
     58 O          33.1921   -0.0762  -10.6263 O.2       9 UNK        -0.5390 
     59 N          31.4074    1.2306  -10.0925 N.am      10 UNK        -0.4204 
     60 CA         32.0471    2.5440   -9.9682 C.3       10 UNK         0.0237 
     61 CB         32.6662    2.9990  -11.3077 C.3       10 UNK        -0.1985 
     62 C          33.0353    2.5808   -8.7868 C.2       10 UNK         0.4970 
     63 O          34.2058    2.9234   -8.9666 O.2       10 UNK        -0.4914 
     64 N          32.5374    2.2173   -7.5965 N.am      11 UNK        -0.4285 
     65 CA         33.2977    2.2378   -6.3332 C.3       11 UNK         0.1007 
     66 C          33.6455    3.6657   -5.8166 C.2       11 UNK         0.5703 
     67 N          32.9879    4.7223   -6.2811 N.am      11 UNK        -0.7361 
     68 O          34.5337    3.8157   -4.9808 O.2       11 UNK        -0.4986 
     69 C69        32.6035    1.4192   -5.2122 C.3       12 UNK        -0.0947 
     70 S70        32.4205   -0.3525   -5.5955 S.3       12 UNK        -0.2240 
     71 C71        31.5828   -0.9053   -4.0688 C.3       12 UNK         0.0194 
     72 H72        26.4598   -5.0523    3.1296 H         1 UNK         0.0906 
     73 H73        27.9922   -5.8224    3.5432 H         1 UNK         0.0906 
     74 H74        27.6324   -4.1980    4.1344 H         1 UNK         0.0906 
     75 H75        26.4155   -4.2132    1.0495 H         1 UNK         0.3140 
     76 H76        28.9017   -3.1522   -0.2003 H         1 UNK         0.1085 
     77 H77        26.6494   -4.7446   -1.5408 H         1 UNK         0.0836 
     78 H78        27.8860   -3.8953   -2.4116 H         1 UNK         0.0836 
     79 H79        30.7721   -4.6837   -0.9050 H         1 UNK         0.0731 
     80 H80        31.0894   -6.0938   -1.8839 H         1 UNK         0.0731 
     81 H81        31.4536   -2.7564   -2.0891 H         1 UNK         0.1312 
     82 H82        30.3242   -2.1561   -6.1770 H         1 UNK         0.1406 
     83 H83        29.4244   -5.8641   -4.2398 H         1 UNK         0.1631 
     84 H84        29.6188   -5.4765   -6.9448 H         1 UNK         0.0717 
     85 H85        29.2432   -3.8464   -7.4269 H         1 UNK         0.0717 
     86 H86        27.3300   -2.9650   -4.9100 H         1 UNK         0.0934 
     87 H87        25.7558   -3.6031   -5.2145 H         1 UNK         0.0934 
     88 H88        26.3158   -2.7815   -7.7727 H         1 UNK         0.0739 
     89 H89        24.7299   -1.6509   -5.6950 H         1 UNK         0.3093 
     90 H90        23.4015    1.0560   -7.4829 H         1 UNK         0.0818 
     91 H91        21.1924   -0.0761   -7.4045 H         1 UNK         0.0819 
     92 H92        22.1640   -0.7354   -8.7085 H         1 UNK         0.0819 
     93 H93        21.9733   -1.6476   -7.2181 H         1 UNK         0.0819 
     94 H94        22.4547   -0.3203   -5.1676 H         1 UNK         0.3041 
     95 H95        23.2284    1.8101   -3.0713 H         1 UNK         0.0784 
     96 H96        21.8285   -0.2113   -3.3197 H         1 UNK         0.0793 
     97 H97        23.2376   -1.2600   -3.1308 H         1 UNK         0.0793 
     98 H98        22.6672   -0.2812   -1.7882 H         1 UNK         0.0793 
     99 H99        24.9925    1.5618   -1.7572 H         1 UNK         0.3024 
    100 H100       27.8934    0.7101   -1.9376 H         1 UNK         0.1171 
    101 H101       27.4372    0.9481    0.5273 H         1 UNK         0.0786 
    102 H102       25.7572    0.5120    0.2424 H         1 UNK         0.0786 
    103 H103       26.4311    1.9787   -0.4640 H         1 UNK         0.0786 
    104 H104       28.6126   -1.3022   -1.4064 H         1 UNK         0.2977 
    105 H105       27.0056   -0.3142   -5.2633 H         1 UNK         0.3127 
    106 H106       29.6593    0.2756   -6.0544 H         1 UNK         0.0770 
    107 H107       27.5632    2.0009   -4.6352 H         1 UNK         0.0814 
    108 H108       29.2507    2.4571   -4.8122 H         1 UNK         0.0814 
    109 H109       28.8346    1.0248   -3.8959 H         1 UNK         0.0814 
    110 H110       26.5780    1.5616   -7.2588 H         1 UNK         0.2983 
    111 H111       27.7284    3.5665   -8.9735 H         1 UNK         0.0947 
    112 H112       25.4539    3.6606   -9.9614 H         1 UNK         0.0806 
    113 H113       25.3561    3.6546   -8.2075 H         1 UNK         0.0806 
    114 H114       24.9897    2.1911   -9.1192 H         1 UNK         0.0806 
    115 H115       26.6164    0.1921   -9.5380 H         1 UNK         0.3000 
    116 H116       27.2019    0.1087  -12.3133 H         1 UNK         0.0850 
    117 H117       26.9523   -2.3660  -12.0117 H         1 UNK         0.0810 
    118 H118       25.6577   -1.4830  -11.2172 H         1 UNK         0.0810 
    119 H119       26.9745   -2.1614  -10.2643 H         1 UNK         0.0810 
    120 H120       29.1546   -0.9868   -9.4871 H         1 UNK         0.3040 
    121 H121       31.3908   -1.8436  -11.1273 H         1 UNK         0.0766 
    122 H122       32.4667   -2.2359   -8.9142 H         1 UNK         0.0812 
    123 H123       31.1599   -1.3754   -8.1156 H         1 UNK         0.0812 
    124 H124       30.8417   -2.9034   -8.9409 H         1 UNK         0.0812 
    125 H125       30.4294    1.2100   -9.8324 H         1 UNK         0.3205 
    126 H126       31.2500    3.2482   -9.7248 H         1 UNK         0.0754 
    127 H127       33.0376    4.0219  -11.2356 H         1 UNK         0.0769 
    128 H128       31.9289    2.9773  -12.1103 H         1 UNK         0.0769 
    129 H129       33.5058    2.3708  -11.6063 H         1 UNK         0.0769 
    130 H130       31.5494    1.9877   -7.5363 H         1 UNK         0.2981 
    131 H131       34.2569    1.7572   -6.5349 H         1 UNK         0.0541 
    132 H132       32.2533    4.6100   -6.9606 H         1 UNK         0.3459 
    133 H133       33.2265    5.6404   -5.9409 H         1 UNK         0.3459 
    134 H134       31.6176    1.8353   -5.0010 H         1 UNK         0.0612 
    135 H135       33.1708    1.4877   -4.2817 H         1 UNK         0.0612 
    136 H136       32.3008   -0.8396   -3.2498 H         1 UNK         0.0624 
    137 H137       30.7778   -0.2131   -3.8281 H         1 UNK         0.0624 
@<TRIPOS>BOND
     1    1    2 1    
     2    1   72 1    
     3    1   73 1    
     4    1   74 1    
     5    2    3 2    
     6    2    4 am   BACKBONE|DICT|INTERRES
     7    4    5 1    
     8    4   75 1    
     9    5    6 1    
    10    5   35 1    
    11    5   76 1    
    12    6    7 1    
    13    6   77 1    
    14    6   78 1    
    15    7    8 1    
    16    8    9 1    
    17    8   79 1    
    18    8   80 1    
    19    9   10 ar   
    20    9   14 ar   
    21   10   11 ar   
    22   10   81 1    
    23   11   12 ar   
    24   11   71 1    
    25   12   13 ar   
    26   12   82 1    
    27   13   14 ar   
    28   13   15 1    
    29   14   83 1    
    30   15   16 1    
    31   15   84 1    
    32   15   85 1    
    33   16   17 1    
    34   17   18 1    
    35   17   86 1    
    36   17   87 1    
    37   18   19 1    
    38   18   37 1    
    39   18   88 1    
    40   19   20 am   BACKBONE|DICT|INTERRES
    41   19   89 1    
    42   20   21 2    
    43   20   22 1    
    44   22   23 1    
    45   22   24 1    
    46   22   90 1    
    47   23   91 1    
    48   23   92 1    
    49   23   93 1    
    50   24   25 am   BACKBONE|DICT|INTERRES
    51   24   94 1    
    52   25   26 2    
    53   25   27 1    
    54   27   28 1    
    55   27   29 1    
    56   27   95 1    
    57   28   96 1    
    58   28   97 1    
    59   28   98 1    
    60   29   30 am   BACKBONE|DICT|INTERRES
    61   29   99 1    
    62   30   31 2    
    63   30   32 1    
    64   32   33 1    
    65   32   34 1    
    66   32  100 1    
    67   33  101 1    
    68   33  102 1    
    69   33  103 1    
    70   34   35 am   BACKBONE|DICT|INTERRES
    71   34  104 1    
    72   35   36 2    
    73   37   38 2    
    74   37   39 am   BACKBONE|DICT|INTERRES
    75   39   40 1    
    76   39  105 1    
    77   40   41 1    
    78   40   42 1    
    79   40  106 1    
    80   41  107 1    
    81   41  108 1    
    82   41  109 1    
    83   42   43 2    
    84   42   44 am   BACKBONE|DICT|INTERRES
    85   44   45 1    
    86   44  110 1    
    87   45   46 1    
    88   45   47 1    
    89   45  111 1    
    90   46  112 1    
    91   46  113 1    
    92   46  114 1    
    93   47   48 2    
    94   47   49 am   BACKBONE|DICT|INTERRES
    95   49   50 1    
    96   49  115 1    
    97   50   51 1    
    98   50   52 1    
    99   50  116 1    
   100   51  117 1    
   101   51  118 1    
   102   51  119 1    
   103   52   53 2    
   104   52   54 am   BACKBONE|DICT|INTERRES
   105   54   55 1    
   106   54  120 1    
   107   55   56 1    
   108   55   57 1    
   109   55  121 1    
   110   56  122 1    
   111   56  123 1    
   112   56  124 1    
   113   57   58 2    
   114   57   59 am   BACKBONE|DICT|INTERRES
   115   59   60 1    
   116   59  125 1    
   117   60   61 1    
   118   60   62 1    
   119   60  126 1    
   120   61  127 1    
   121   61  128 1    
   122   61  129 1    
   123   62   63 2    
   124   62   64 am   BACKBONE|DICT|INTERRES
   125   64   65 1    
   126   64  130 1    
   127   65   66 1    
   128   65   69 1    
   129   65  131 1    
   130   66   67 am   BACKBONE|DICT|INTERRES
   131   66   68 2    
   132   67  132 1    
   133   67  133 1    
   134   69   70 1    
   135   69  134 1    
   136   69  135 1    
   137   70   71 1    
   138   71  136 1    
   139   71  137 1    
@<TRIPOS>SUBSTRUCTURE
     1 UNK         1 GROUP             0       ****    0 ROOT    
