@<TRIPOS>MOLECULE
3R137
137   139    1
SMALL
USER_CHARGES


@<TRIPOS>ATOM
      1 CA         25.6264   -6.3136   -4.5911 C.3       0 UNK        -0.2020 
      2 C          25.8170   -5.4016   -3.3888 C.2       0 UNK         0.4855 
      3 O          24.8426   -4.8434   -2.8823 O.2       0 UNK        -0.5197 
      4 N          27.0673   -5.2437   -2.9326 N.am      1 UNK        -0.4892 
      5 CA         27.4713   -4.3784   -1.8181 C.3       1 UNK         0.0835 
      6 C6         28.9839   -4.5364   -1.5252 C.3       12 UNK        -0.0855 
      7 S7         29.4837   -3.8109    0.0762 S.3       12 UNK        -0.2931 
      8 C8         31.2730   -3.5293   -0.1699 C.3       12 UNK         0.0378 
      9 C9         31.5580   -2.6278   -1.3641 C.ar      12 UNK        -0.0802 
     10 C10        32.2718   -3.1136   -2.4631 C.ar      12 UNK        -0.0944 
     11 C11        32.4600   -2.3152   -3.5949 C.ar      12 UNK        -0.0787 
     12 C12        31.9242   -1.0237   -3.6281 C.ar      12 UNK        -0.0862 
     13 C13        31.2183   -0.5225   -2.5298 C.ar      12 UNK        -0.0733 
     14 C14        31.0651   -1.3214   -1.3911 C.ar      12 UNK        -0.0832 
     15 C15        30.5783    0.8586   -2.5877 C.3       12 UNK         0.0240 
     16 S16        28.8011    0.7442   -2.2151 S.3       12 UNK        -0.2522 
     17 C17        28.0581    2.0566   -3.2294 C.3       12 UNK        -0.0967 
     18 CA         28.0355    1.7674   -4.7550 C.3       5 UNK         0.0660 
     19 N          27.7564    0.3706   -5.1085 N.am      5 UNK        -0.4015 
     20 C          27.8012   -0.1259   -6.3553 C.2       4 UNK         0.4946 
     21 O          28.1214    0.5315   -7.3477 O.2       4 UNK        -0.5353 
     22 CA         27.3528   -1.5823   -6.5378 C.3       4 UNK         0.0277 
     23 CB         28.5136   -2.5521   -6.2619 C.3       4 UNK        -0.1981 
     24 N          26.2024   -1.8997   -5.6870 N.am      4 UNK        -0.4209 
     25 C          24.9685   -1.4122   -5.8972 C.2       3 UNK         0.4942 
     26 O          24.6752   -0.6980   -6.8539 O.2       3 UNK        -0.5208 
     27 CA         23.8848   -1.7200   -4.8509 C.3       3 UNK         0.0250 
     28 CB         23.1357   -3.0127   -5.2067 C.3       3 UNK        -0.1990 
     29 N          24.4137   -1.8020   -3.4888 N.am      3 UNK        -0.4232 
     30 C          24.9384   -0.7572   -2.8293 C.2       2 UNK         0.4993 
     31 O          24.9835    0.3852   -3.2901 O.2       2 UNK        -0.5286 
     32 CA         25.5571   -1.0360   -1.4466 C.3       2 UNK         0.0209 
     33 CB         24.5116   -0.8166   -0.3420 C.3       2 UNK        -0.1931 
     34 N          26.1460   -2.3735   -1.2988 N.am      2 UNK        -0.4546 
     35 C          27.0738   -2.9136   -2.1040 C.2       1 UNK         0.5154 
     36 O          27.5488   -2.3379   -3.0847 O.2       1 UNK        -0.5181 
     37 C          27.0582    2.7321   -5.4537 C.2       5 UNK         0.5014 
     38 O          27.4873    3.7587   -5.9799 O.2       5 UNK        -0.5248 
     39 N          25.7676    2.3700   -5.4484 N.am      6 UNK        -0.4434 
     40 CA         24.6953    3.1127   -6.1053 C.3       6 UNK         0.0363 
     41 CB         23.3362    2.5913   -5.6097 C.3       6 UNK        -0.1936 
     42 C          24.7752    3.0550   -7.6405 C.2       6 UNK         0.5081 
     43 O          24.6641    4.0978   -8.2861 O.2       6 UNK        -0.5248 
     44 N          24.9261    1.8461   -8.2000 N.am      7 UNK        -0.4718 
     45 CA         24.8479    1.6066   -9.6426 C.3       7 UNK         0.0273 
     46 CB         24.5222    0.1275   -9.9073 C.3       7 UNK        -0.1935 
     47 C          26.1093    2.0157  -10.4157 C.2       7 UNK         0.5018 
     48 O          25.9794    2.6106  -11.4870 O.2       7 UNK        -0.5186 
     49 N          27.2904    1.6537   -9.8981 N.am      8 UNK        -0.4240 
     50 CA         28.5628    1.7619  -10.6197 C.3       8 UNK         0.0235 
     51 CB         29.1059    0.3451  -10.8728 C.3       8 UNK        -0.2000 
     52 C          29.6128    2.6078   -9.8882 C.2       8 UNK         0.4941 
     53 O          30.4870    3.1612  -10.5560 O.2       8 UNK        -0.5273 
     54 N          29.5387    2.6708   -8.5498 N.am      9 UNK        -0.4262 
     55 CA         30.5167    3.2896   -7.6410 C.3       9 UNK         0.0264 
     56 CB         30.6418    4.8091   -7.8850 C.3       9 UNK        -0.1955 
     57 C          31.8789    2.5632   -7.6322 C.2       9 UNK         0.5031 
     58 O          32.8944    3.1678   -7.2829 O.2       9 UNK        -0.5390 
     59 N          31.8729    1.2778   -8.0026 N.am      10 UNK        -0.4204 
     60 CA         33.0180    0.3839   -8.1352 C.3       10 UNK         0.0237 
     61 CB         33.8890    0.8029   -9.3382 C.3       10 UNK        -0.1985 
     62 C          32.4800   -1.0408   -8.3225 C.2       10 UNK         0.4970 
     63 O          31.2804   -1.2113   -8.5550 O.2       10 UNK        -0.4914 
     64 N          33.3776   -2.0255   -8.2360 N.am      11 UNK        -0.4285 
     65 CA         33.0994   -3.4487   -8.4727 C.3       11 UNK         0.1007 
     66 C          33.9890   -3.9788   -9.6259 C.2       11 UNK         0.5703 
     67 N          33.5207   -4.9768  -10.3627 N.am      11 UNK        -0.7361 
     68 O          35.1091   -3.5167   -9.8410 O.2       11 UNK        -0.4986 
     69 C69        33.3066   -4.2948   -7.1896 C.3       12 UNK        -0.0947 
     70 S70        32.1417   -3.8465   -5.8613 S.3       12 UNK        -0.2240 
     71 C71        33.2258   -2.8599   -4.7877 C.3       12 UNK         0.0194 
     72 H72        25.4173   -5.7234   -5.4826 H         1 UNK         0.0906 
     73 H73        26.5106   -6.9206   -4.7845 H         1 UNK         0.0906 
     74 H74        24.7866   -6.9872   -4.4227 H         1 UNK         0.0906 
     75 H75        27.8235   -5.7103   -3.4126 H         1 UNK         0.3140 
     76 H76        26.9211   -4.7235   -0.9400 H         1 UNK         0.1085 
     77 H77        29.5679   -4.1070   -2.3408 H         1 UNK         0.0836 
     78 H78        29.2495   -5.5943   -1.4922 H         1 UNK         0.0836 
     79 H79        31.7694   -4.4943   -0.2834 H         1 UNK         0.0731 
     80 H80        31.6883   -3.0730    0.7297 H         1 UNK         0.0731 
     81 H81        32.6595   -4.1233   -2.4524 H         1 UNK         0.1312 
     82 H82        32.0445   -0.4173   -4.5155 H         1 UNK         0.1406 
     83 H83        30.5036   -0.9479   -0.5454 H         1 UNK         0.1631 
     84 H84        30.7228    1.3059   -3.5717 H         1 UNK         0.0717 
     85 H85        31.0599    1.5195   -1.8661 H         1 UNK         0.0717 
     86 H86        27.0445    2.1930   -2.8459 H         1 UNK         0.0934 
     87 H87        28.5790    2.9950   -3.0294 H         1 UNK         0.0934 
     88 H88        29.0338    1.9752   -5.1366 H         1 UNK         0.0739 
     89 H89        27.5159   -0.2469   -4.3431 H         1 UNK         0.3093 
     90 H90        27.0491   -1.7092   -7.5793 H         1 UNK         0.0818 
     91 H91        28.9327   -2.4224   -5.2636 H         1 UNK         0.0819 
     92 H92        28.2001   -3.5910   -6.3627 H         1 UNK         0.0819 
     93 H93        29.3271   -2.3894   -6.9703 H         1 UNK         0.0819 
     94 H94        26.4011   -2.3936   -4.8240 H         1 UNK         0.3041 
     95 H95        23.1652   -0.8987   -4.8750 H         1 UNK         0.0784 
     96 H96        22.6703   -2.9328   -6.1901 H         1 UNK         0.0793 
     97 H97        23.8027   -3.8736   -5.2334 H         1 UNK         0.0793 
     98 H98        22.3430   -3.2242   -4.4889 H         1 UNK         0.0793 
     99 H99        24.4457   -2.7213   -3.0606 H         1 UNK         0.3024 
    100 H100       26.3563   -0.3099   -1.3006 H         1 UNK         0.1171 
    101 H101       24.9572   -0.8997    0.6495 H         1 UNK         0.0786 
    102 H102       24.0716    0.1793   -0.4139 H         1 UNK         0.0786 
    103 H103       23.6966   -1.5387   -0.4075 H         1 UNK         0.0786 
    104 H104       25.7869   -2.9346   -0.5398 H         1 UNK         0.2977 
    105 H105       25.5008    1.5360   -4.9338 H         1 UNK         0.3127 
    106 H106       24.7826    4.1600   -5.8078 H         1 UNK         0.0770 
    107 H107       23.1926    1.5381   -5.8537 H         1 UNK         0.0814 
    108 H108       22.5154    3.1471   -6.0650 H         1 UNK         0.0814 
    109 H109       23.2410    2.6983   -4.5289 H         1 UNK         0.0814 
    110 H110       24.9714    1.0215   -7.6049 H         1 UNK         0.2983 
    111 H111       24.0193    2.1991  -10.0379 H         1 UNK         0.0947 
    112 H112       24.4222   -0.0665  -10.9762 H         1 UNK         0.0806 
    113 H113       23.5824   -0.1616   -9.4365 H         1 UNK         0.0806 
    114 H114       25.3028   -0.5329   -9.5274 H         1 UNK         0.0806 
    115 H115       27.3161    1.1888   -8.9947 H         1 UNK         0.3000 
    116 H116       28.4145    2.2372  -11.5916 H         1 UNK         0.0850 
    117 H117       30.0834    0.3750  -11.3565 H         1 UNK         0.0810 
    118 H118       28.4397   -0.2213  -11.5235 H         1 UNK         0.0810 
    119 H119       29.2170   -0.2146   -9.9436 H         1 UNK         0.0810 
    120 H120       28.8227    2.1113   -8.0925 H         1 UNK         0.3040 
    121 H121       30.1159    3.1683   -6.6376 H         1 UNK         0.0766 
    122 H122       29.6635    5.2899   -7.8847 H         1 UNK         0.0812 
    123 H123       31.1289    5.0329   -8.8340 H         1 UNK         0.0812 
    124 H124       31.2333    5.2819   -7.1002 H         1 UNK         0.0812 
    125 H125       30.9914    0.8304   -8.2299 H         1 UNK         0.3205 
    126 H126       33.6040    0.4195   -7.2147 H         1 UNK         0.0754 
    127 H127       34.7362    0.1292   -9.4717 H         1 UNK         0.0769 
    128 H128       34.2989    1.8044   -9.2075 H         1 UNK         0.0769 
    129 H129       33.3166    0.7972  -10.2668 H         1 UNK         0.0769 
    130 H130       34.3544   -1.7980   -8.1162 H         1 UNK         0.2981 
    131 H131       32.0627   -3.5717   -8.7926 H         1 UNK         0.0541 
    132 H132       32.6095   -5.3718  -10.1887 H         1 UNK         0.3459 
    133 H133       34.0904   -5.3425  -11.1098 H         1 UNK         0.3459 
    134 H134       33.1511   -5.3536   -7.4047 H         1 UNK         0.0612 
    135 H135       34.3328   -4.2080   -6.8277 H         1 UNK         0.0612 
    136 H136       34.0570   -3.4779   -4.4445 H         1 UNK         0.0624 
    137 H137       33.6625   -2.0417   -5.3618 H         1 UNK         0.0624 
@<TRIPOS>BOND
     1    1    2 1    
     2    1   72 1    
     3    1   73 1    
     4    1   74 1    
     5    2    3 2    
     6    2    4 am   BACKBONE|DICT|INTERRES
     7    4    5 1    
     8    4   75 1    
     9    5    6 1    
    10    5   35 1    
    11    5   76 1    
    12    6    7 1    
    13    6   77 1    
    14    6   78 1    
    15    7    8 1    
    16    8    9 1    
    17    8   79 1    
    18    8   80 1    
    19    9   10 ar   
    20    9   14 ar   
    21   10   11 ar   
    22   10   81 1    
    23   11   12 ar   
    24   11   71 1    
    25   12   13 ar   
    26   12   82 1    
    27   13   14 ar   
    28   13   15 1    
    29   14   83 1    
    30   15   16 1    
    31   15   84 1    
    32   15   85 1    
    33   16   17 1    
    34   17   18 1    
    35   17   86 1    
    36   17   87 1    
    37   18   19 1    
    38   18   37 1    
    39   18   88 1    
    40   19   20 am   BACKBONE|DICT|INTERRES
    41   19   89 1    
    42   20   21 2    
    43   20   22 1    
    44   22   23 1    
    45   22   24 1    
    46   22   90 1    
    47   23   91 1    
    48   23   92 1    
    49   23   93 1    
    50   24   25 am   BACKBONE|DICT|INTERRES
    51   24   94 1    
    52   25   26 2    
    53   25   27 1    
    54   27   28 1    
    55   27   29 1    
    56   27   95 1    
    57   28   96 1    
    58   28   97 1    
    59   28   98 1    
    60   29   30 am   BACKBONE|DICT|INTERRES
    61   29   99 1    
    62   30   31 2    
    63   30   32 1    
    64   32   33 1    
    65   32   34 1    
    66   32  100 1    
    67   33  101 1    
    68   33  102 1    
    69   33  103 1    
    70   34   35 am   BACKBONE|DICT|INTERRES
    71   34  104 1    
    72   35   36 2    
    73   37   38 2    
    74   37   39 am   BACKBONE|DICT|INTERRES
    75   39   40 1    
    76   39  105 1    
    77   40   41 1    
    78   40   42 1    
    79   40  106 1    
    80   41  107 1    
    81   41  108 1    
    82   41  109 1    
    83   42   43 2    
    84   42   44 am   BACKBONE|DICT|INTERRES
    85   44   45 1    
    86   44  110 1    
    87   45   46 1    
    88   45   47 1    
    89   45  111 1    
    90   46  112 1    
    91   46  113 1    
    92   46  114 1    
    93   47   48 2    
    94   47   49 am   BACKBONE|DICT|INTERRES
    95   49   50 1    
    96   49  115 1    
    97   50   51 1    
    98   50   52 1    
    99   50  116 1    
   100   51  117 1    
   101   51  118 1    
   102   51  119 1    
   103   52   53 2    
   104   52   54 am   BACKBONE|DICT|INTERRES
   105   54   55 1    
   106   54  120 1    
   107   55   56 1    
   108   55   57 1    
   109   55  121 1    
   110   56  122 1    
   111   56  123 1    
   112   56  124 1    
   113   57   58 2    
   114   57   59 am   BACKBONE|DICT|INTERRES
   115   59   60 1    
   116   59  125 1    
   117   60   61 1    
   118   60   62 1    
   119   60  126 1    
   120   61  127 1    
   121   61  128 1    
   122   61  129 1    
   123   62   63 2    
   124   62   64 am   BACKBONE|DICT|INTERRES
   125   64   65 1    
   126   64  130 1    
   127   65   66 1    
   128   65   69 1    
   129   65  131 1    
   130   66   67 am   BACKBONE|DICT|INTERRES
   131   66   68 2    
   132   67  132 1    
   133   67  133 1    
   134   69   70 1    
   135   69  134 1    
   136   69  135 1    
   137   70   71 1    
   138   71  136 1    
   139   71  137 1    
@<TRIPOS>SUBSTRUCTURE
     1 UNK         1 GROUP             0       ****    0 ROOT    
