@<TRIPOS>MOLECULE
3R137
137   139    1
SMALL
USER_CHARGES


@<TRIPOS>ATOM
      1 CA         24.9180   -4.0880    1.5971 C.3       0 UNK        -0.2020 
      2 C          25.7762   -3.6771    0.4096 C.2       0 UNK         0.4855 
      3 O          25.6151   -2.5718   -0.1064 O.2       0 UNK        -0.5197 
      4 N          26.6916   -4.5547   -0.0172 N.am      1 UNK        -0.4892 
      5 CA         27.5713   -4.3567   -1.1752 C.3       1 UNK         0.0835 
      6 C6         28.7881   -5.3132   -1.1302 C.3       12 UNK        -0.0855 
      7 S7         29.8411   -4.9789    0.3227 S.3       12 UNK        -0.2931 
      8 C8         31.3454   -4.2876   -0.4417 C.3       12 UNK         0.0378 
      9 C9         31.0776   -3.0689   -1.3195 C.ar      12 UNK        -0.0802 
     10 C10        31.5154   -3.0591   -2.6470 C.ar      12 UNK        -0.0944 
     11 C11        31.3261   -1.9355   -3.4572 C.ar      12 UNK        -0.0787 
     12 C12        30.6749   -0.8172   -2.9248 C.ar      12 UNK        -0.0862 
     13 C13        30.2113   -0.8159   -1.6042 C.ar      12 UNK        -0.0733 
     14 C14        30.4256   -1.9436   -0.8048 C.ar      12 UNK        -0.0832 
     15 C15        29.5189    0.4116   -1.0201 C.3       12 UNK         0.0240 
     16 S16        27.8231    0.6442   -1.6578 S.3       12 UNK        -0.2522 
     17 C17        28.1305    1.5043   -3.2372 C.3       12 UNK        -0.0967 
     18 CA         27.7561    0.6036   -4.4521 C.3       5 UNK         0.0660 
     19 N          26.3096    0.5711   -4.7009 N.am      5 UNK        -0.4015 
     20 C          25.5814    1.5526   -5.2608 C.2       4 UNK         0.4946 
     21 O          26.0481    2.6511   -5.5686 O.2       4 UNK        -0.5353 
     22 CA         24.1032    1.2503   -5.5610 C.3       4 UNK         0.0277 
     23 CB         23.5424    2.0932   -6.7231 C.3       4 UNK        -0.1981 
     24 N          23.9221   -0.1713   -5.8517 N.am      4 UNK        -0.4209 
     25 C          22.8996   -0.9197   -5.4261 C.2       3 UNK         0.4942 
     26 O          21.9131   -0.4684   -4.8425 O.2       3 UNK        -0.5208 
     27 CA         22.9960   -2.4388   -5.6712 C.3       3 UNK         0.0250 
     28 CB         22.3082   -2.8012   -6.9982 C.3       3 UNK        -0.1990 
     29 N          24.3445   -3.0334   -5.6537 N.am      3 UNK        -0.4232 
     30 C          25.3015   -2.8447   -4.7319 C.2       2 UNK         0.4993 
     31 O          25.2616   -1.9744   -3.8595 O.2       2 UNK        -0.5286 
     32 CA         26.5378   -3.7550   -4.8310 C.3       2 UNK         0.0209 
     33 CB         27.5144   -3.2450   -5.9014 C.3       2 UNK        -0.1931 
     34 N          27.2367   -3.8318   -3.5451 N.am      2 UNK        -0.4546 
     35 C          26.7897   -4.5290   -2.4924 C.2       1 UNK         0.5154 
     36 O          25.8281   -5.3024   -2.5443 O.2       1 UNK        -0.5181 
     37 C          28.5213    0.9094   -5.7623 C.2       5 UNK         0.5014 
     38 O          28.2849    0.2320   -6.7681 O.2       5 UNK        -0.5248 
     39 N          29.3975    1.9230   -5.7536 N.am      6 UNK        -0.4434 
     40 CA         30.2108    2.3388   -6.8955 C.3       6 UNK         0.0363 
     41 CB         31.2298    3.3946   -6.4435 C.3       6 UNK        -0.1936 
     42 C          29.3955    2.8491   -8.0938 C.2       6 UNK         0.5081 
     43 O          29.8689    2.7225   -9.2202 O.2       6 UNK        -0.5248 
     44 N          28.1779    3.3629   -7.8644 N.am      7 UNK        -0.4718 
     45 CA         27.2706    3.7840   -8.9380 C.3       7 UNK         0.0273 
     46 CB         26.1445    4.6547   -8.3595 C.3       7 UNK        -0.1935 
     47 C          26.6998    2.6032   -9.7468 C.2       7 UNK         0.5018 
     48 O          26.2785    2.8122  -10.8851 O.2       7 UNK        -0.5186 
     49 N          26.7114    1.3957   -9.1636 N.am      8 UNK        -0.4240 
     50 CA         26.3565    0.1492   -9.8390 C.3       8 UNK         0.0235 
     51 CB         25.5405   -0.7439   -8.8879 C.3       8 UNK        -0.2000 
     52 C          27.6121   -0.5865  -10.3283 C.2       8 UNK         0.4941 
     53 O          27.6637   -0.9850  -11.4921 O.2       8 UNK        -0.5273 
     54 N          28.5850   -0.7829   -9.4279 N.am      9 UNK        -0.4262 
     55 CA         29.7373   -1.6587   -9.6525 C.3       9 UNK         0.0264 
     56 CB         30.2203   -2.1826   -8.2930 C.3       9 UNK        -0.1955 
     57 C          30.9178   -1.0129  -10.3925 C.2       9 UNK         0.5031 
     58 O          31.7436   -1.7541  -10.9271 O.2       9 UNK        -0.5390 
     59 N          31.0308    0.3244  -10.3531 N.am      10 UNK        -0.4204 
     60 CA         32.2075    1.1129  -10.7569 C.3       10 UNK         0.0237 
     61 CB         32.4731    0.9957  -12.2740 C.3       10 UNK        -0.1985 
     62 C          33.4610    0.8223   -9.8997 C.2       10 UNK         0.4970 
     63 O          34.5804    1.0393  -10.3678 O.2       10 UNK        -0.4914 
     64 N          33.2569    0.3325   -8.6678 N.am      11 UNK        -0.4285 
     65 CA         34.3122    0.0094   -7.6998 C.3       11 UNK         0.1007 
     66 C          34.9976    1.2621   -7.0816 C.2       11 UNK         0.5703 
     67 N          36.1561    1.0873   -6.4597 N.am      11 UNK        -0.7361 
     68 O          34.4913    2.3812   -7.1449 O.2       11 UNK        -0.4986 
     69 C69        33.8167   -1.0103   -6.6363 C.3       12 UNK        -0.0947 
     70 S70        32.5216   -0.3966   -5.5021 S.3       12 UNK        -0.2240 
     71 C71        31.8109   -1.9715   -4.9056 C.3       12 UNK         0.0194 
     72 H72        23.8656   -4.0939    1.3146 H         1 UNK         0.0906 
     73 H73        25.1762   -5.0814    1.9636 H         1 UNK         0.0906 
     74 H74        25.0473   -3.3808    2.4160 H         1 UNK         0.0906 
     75 H75        26.7717   -5.4523    0.4384 H         1 UNK         0.3140 
     76 H76        27.9360   -3.3272   -1.1448 H         1 UNK         0.1085 
     77 H77        28.4595   -6.3536   -1.0886 H         1 UNK         0.0836 
     78 H78        29.3887   -5.2264   -2.0379 H         1 UNK         0.0836 
     79 H79        32.0417   -4.0044    0.3487 H         1 UNK         0.0731 
     80 H80        31.8373   -5.0771   -1.0123 H         1 UNK         0.0731 
     81 H81        32.0180   -3.9282   -3.0496 H         1 UNK         0.1312 
     82 H82        30.5381    0.0558   -3.5426 H         1 UNK         0.1406 
     83 H83        30.0887   -1.9493    0.2233 H         1 UNK         0.1631 
     84 H84        29.4569    0.3222    0.0655 H         1 UNK         0.0717 
     85 H85        30.1209    1.3021   -1.2054 H         1 UNK         0.0717 
     86 H86        27.5566    2.4326   -3.2473 H         1 UNK         0.0934 
     87 H87        29.1746    1.8127   -3.2399 H         1 UNK         0.0934 
     88 H88        28.0390   -0.4206   -4.2078 H         1 UNK         0.0739 
     89 H89        25.8419   -0.2869   -4.4144 H         1 UNK         0.3093 
     90 H90        23.5554    1.5097   -4.6526 H         1 UNK         0.0818 
     91 H91        22.4998    1.8472   -6.9247 H         1 UNK         0.0819 
     92 H92        23.5802    3.1572   -6.4872 H         1 UNK         0.0819 
     93 H93        24.1073    1.9394   -7.6428 H         1 UNK         0.0819 
     94 H94        24.6887   -0.6349   -6.3161 H         1 UNK         0.3041 
     95 H95        22.4401   -2.9175   -4.8627 H         1 UNK         0.0784 
     96 H96        21.2957   -2.3964   -7.0388 H         1 UNK         0.0793 
     97 H97        22.8521   -2.4035   -7.8561 H         1 UNK         0.0793 
     98 H98        22.2254   -3.8810   -7.1230 H         1 UNK         0.0793 
     99 H99        24.5026   -3.7501   -6.3479 H         1 UNK         0.3024 
    100 H100       26.2063   -4.7591   -5.1072 H         1 UNK         0.1171 
    101 H101       27.0407   -3.2021   -6.8830 H         1 UNK         0.0786 
    102 H102       28.3755   -3.9078   -5.9884 H         1 UNK         0.0786 
    103 H103       27.8851   -2.2463   -5.6759 H         1 UNK         0.0786 
    104 H104       28.0188   -3.2061   -3.4187 H         1 UNK         0.2977 
    105 H105       29.5027    2.4676   -4.9108 H         1 UNK         0.3127 
    106 H106       30.7636    1.4620   -7.2368 H         1 UNK         0.0770 
    107 H107       30.7428    4.2906   -6.0571 H         1 UNK         0.0814 
    108 H108       31.8668    3.7011   -7.2748 H         1 UNK         0.0814 
    109 H109       31.8883    3.0032   -5.6675 H         1 UNK         0.0814 
    110 H110       27.8151    3.3891   -6.9188 H         1 UNK         0.2983 
    111 H111       27.8410    4.4006   -9.6367 H         1 UNK         0.0947 
    112 H112       25.4947    5.0275   -9.1523 H         1 UNK         0.0806 
    113 H113       26.5430    5.5220   -7.8331 H         1 UNK         0.0806 
    114 H114       25.5186    4.0988   -7.6638 H         1 UNK         0.0806 
    115 H115       27.1095    1.3165   -8.2358 H         1 UNK         0.3000 
    116 H116       25.7336    0.3577  -10.7118 H         1 UNK         0.0850 
    117 H117       25.3157   -1.7051   -9.3526 H         1 UNK         0.0810 
    118 H118       24.5867   -0.2793   -8.6401 H         1 UNK         0.0810 
    119 H119       26.0749   -0.9478   -7.9599 H         1 UNK         0.0810 
    120 H120       28.4610   -0.4291   -8.4809 H         1 UNK         0.3040 
    121 H121       29.4169   -2.5173  -10.2472 H         1 UNK         0.0766 
    122 H122       31.1109   -2.8046   -8.3959 H         1 UNK         0.0812 
    123 H123       30.4662   -1.3625   -7.6188 H         1 UNK         0.0812 
    124 H124       29.4573   -2.7947   -7.8178 H         1 UNK         0.0812 
    125 H125       30.2921    0.8695   -9.9191 H         1 UNK         0.3205 
    126 H126       31.9610    2.1563  -10.5610 H         1 UNK         0.0754 
    127 H127       33.2295    1.7132  -12.5943 H         1 UNK         0.0769 
    128 H128       31.5710    1.2001  -12.8506 H         1 UNK         0.0769 
    129 H129       32.8321    0.0043  -12.5509 H         1 UNK         0.0769 
    130 H130       32.3121    0.2102   -8.3430 H         1 UNK         0.2981 
    131 H131       35.0938   -0.4985   -8.2685 H         1 UNK         0.0541 
    132 H132       36.5822    0.1763   -6.3934 H         1 UNK         0.3459 
    133 H133       36.6131    1.8851   -6.0467 H         1 UNK         0.3459 
    134 H134       34.6545   -1.3587   -6.0303 H         1 UNK         0.0612 
    135 H135       33.4367   -1.8971   -7.1464 H         1 UNK         0.0612 
    136 H136       32.5608   -2.7561   -5.0183 H         1 UNK         0.0624 
    137 H137       30.9725   -2.2533   -5.5410 H         1 UNK         0.0624 
@<TRIPOS>BOND
     1    1    2 1    
     2    1   72 1    
     3    1   73 1    
     4    1   74 1    
     5    2    3 2    
     6    2    4 am   BACKBONE|DICT|INTERRES
     7    4    5 1    
     8    4   75 1    
     9    5    6 1    
    10    5   35 1    
    11    5   76 1    
    12    6    7 1    
    13    6   77 1    
    14    6   78 1    
    15    7    8 1    
    16    8    9 1    
    17    8   79 1    
    18    8   80 1    
    19    9   10 ar   
    20    9   14 ar   
    21   10   11 ar   
    22   10   81 1    
    23   11   12 ar   
    24   11   71 1    
    25   12   13 ar   
    26   12   82 1    
    27   13   14 ar   
    28   13   15 1    
    29   14   83 1    
    30   15   16 1    
    31   15   84 1    
    32   15   85 1    
    33   16   17 1    
    34   17   18 1    
    35   17   86 1    
    36   17   87 1    
    37   18   19 1    
    38   18   37 1    
    39   18   88 1    
    40   19   20 am   BACKBONE|DICT|INTERRES
    41   19   89 1    
    42   20   21 2    
    43   20   22 1    
    44   22   23 1    
    45   22   24 1    
    46   22   90 1    
    47   23   91 1    
    48   23   92 1    
    49   23   93 1    
    50   24   25 am   BACKBONE|DICT|INTERRES
    51   24   94 1    
    52   25   26 2    
    53   25   27 1    
    54   27   28 1    
    55   27   29 1    
    56   27   95 1    
    57   28   96 1    
    58   28   97 1    
    59   28   98 1    
    60   29   30 am   BACKBONE|DICT|INTERRES
    61   29   99 1    
    62   30   31 2    
    63   30   32 1    
    64   32   33 1    
    65   32   34 1    
    66   32  100 1    
    67   33  101 1    
    68   33  102 1    
    69   33  103 1    
    70   34   35 am   BACKBONE|DICT|INTERRES
    71   34  104 1    
    72   35   36 2    
    73   37   38 2    
    74   37   39 am   BACKBONE|DICT|INTERRES
    75   39   40 1    
    76   39  105 1    
    77   40   41 1    
    78   40   42 1    
    79   40  106 1    
    80   41  107 1    
    81   41  108 1    
    82   41  109 1    
    83   42   43 2    
    84   42   44 am   BACKBONE|DICT|INTERRES
    85   44   45 1    
    86   44  110 1    
    87   45   46 1    
    88   45   47 1    
    89   45  111 1    
    90   46  112 1    
    91   46  113 1    
    92   46  114 1    
    93   47   48 2    
    94   47   49 am   BACKBONE|DICT|INTERRES
    95   49   50 1    
    96   49  115 1    
    97   50   51 1    
    98   50   52 1    
    99   50  116 1    
   100   51  117 1    
   101   51  118 1    
   102   51  119 1    
   103   52   53 2    
   104   52   54 am   BACKBONE|DICT|INTERRES
   105   54   55 1    
   106   54  120 1    
   107   55   56 1    
   108   55   57 1    
   109   55  121 1    
   110   56  122 1    
   111   56  123 1    
   112   56  124 1    
   113   57   58 2    
   114   57   59 am   BACKBONE|DICT|INTERRES
   115   59   60 1    
   116   59  125 1    
   117   60   61 1    
   118   60   62 1    
   119   60  126 1    
   120   61  127 1    
   121   61  128 1    
   122   61  129 1    
   123   62   63 2    
   124   62   64 am   BACKBONE|DICT|INTERRES
   125   64   65 1    
   126   64  130 1    
   127   65   66 1    
   128   65   69 1    
   129   65  131 1    
   130   66   67 am   BACKBONE|DICT|INTERRES
   131   66   68 2    
   132   67  132 1    
   133   67  133 1    
   134   69   70 1    
   135   69  134 1    
   136   69  135 1    
   137   70   71 1    
   138   71  136 1    
   139   71  137 1    
@<TRIPOS>SUBSTRUCTURE
     1 UNK         1 GROUP             0       ****    0 ROOT    
