@<TRIPOS>MOLECULE
3R137
137   139    1
SMALL
USER_CHARGES


@<TRIPOS>ATOM
      1 CA         25.4639   -7.4045   -4.2087 C.3       0 UNK        -0.2020 
      2 C          25.8062   -6.4301   -3.0914 C.2       0 UNK         0.4855 
      3 O          25.2722   -6.5515   -1.9879 O.2       0 UNK        -0.5197 
      4 N          26.6999   -5.4725   -3.3666 N.am      1 UNK        -0.4892 
      5 CA         27.1094   -4.4132   -2.4351 C.3       1 UNK         0.0835 
      6 C6         28.4612   -3.7693   -2.8409 C.3       12 UNK        -0.0855 
      7 S7         29.7854   -4.9842   -3.1796 S.3       12 UNK        -0.2931 
      8 C8         30.6209   -4.2263   -4.6136 C.3       12 UNK         0.0378 
      9 C9         31.4487   -3.0236   -4.1876 C.ar      12 UNK        -0.0802 
     10 C10        32.7938   -3.1760   -3.8473 C.ar      12 UNK        -0.0944 
     11 C11        33.5494   -2.0790   -3.4216 C.ar      12 UNK        -0.0787 
     12 C12        32.9377   -0.8249   -3.3046 C.ar      12 UNK        -0.0862 
     13 C13        31.5851   -0.6618   -3.6282 C.ar      12 UNK        -0.0733 
     14 C14        30.8625   -1.7599   -4.1067 C.ar      12 UNK        -0.0832 
     15 C15        30.9086    0.6973   -3.4668 C.3       12 UNK         0.0240 
     16 S16        29.2092    0.5658   -2.8087 S.3       12 UNK        -0.2522 
     17 C17        28.3852    1.9365   -3.6809 C.3       12 UNK        -0.0967 
     18 CA         27.9448    1.5645   -5.1205 C.3       5 UNK         0.0660 
     19 N          27.0491    0.4031   -5.1809 N.am      5 UNK        -0.4015 
     20 C          26.7190   -0.2275   -6.3219 C.2       4 UNK         0.4946 
     21 O          27.1886    0.0701   -7.4201 O.2       4 UNK        -0.5353 
     22 CA         25.6380   -1.3248   -6.2601 C.3       4 UNK         0.0277 
     23 CB         26.2702   -2.7198   -6.1678 C.3       4 UNK        -0.1981 
     24 N          24.6755   -1.1378   -5.1716 N.am      4 UNK        -0.4209 
     25 C          23.8693   -0.0702   -5.0622 C.2       3 UNK         0.4942 
     26 O          23.7958    0.8085   -5.9217 O.2       3 UNK        -0.5208 
     27 CA         23.0528    0.0920   -3.7664 C.3       3 UNK         0.0250 
     28 CB         21.5940   -0.3314   -3.9986 C.3       3 UNK        -0.1990 
     29 N          23.5867   -0.6314   -2.6071 N.am      3 UNK        -0.4232 
     30 C          24.8142   -0.4939   -2.0831 C.2       2 UNK         0.4993 
     31 O          25.6621    0.2811   -2.5275 O.2       2 UNK        -0.5286 
     32 CA         25.1787   -1.4137   -0.8989 C.3       2 UNK         0.0209 
     33 CB         23.9507   -2.0237   -0.1848 C.3       2 UNK        -0.1931 
     34 N          26.1175   -2.4835   -1.2731 N.am      2 UNK        -0.4546 
     35 C          26.0030   -3.3395   -2.3015 C.2       1 UNK         0.5154 
     36 O          25.0910   -3.2880   -3.1337 O.2       1 UNK        -0.5181 
     37 C          27.3288    2.7906   -5.8231 C.2       5 UNK         0.5014 
     38 O          28.0360    3.4827   -6.5555 O.2       5 UNK        -0.5248 
     39 N          26.0209    3.0179   -5.6236 N.am      6 UNK        -0.4434 
     40 CA         25.2561    4.0840   -6.2797 C.3       6 UNK         0.0363 
     41 CB         23.9086    4.2745   -5.5649 C.3       6 UNK        -0.1936 
     42 C          25.0492    3.8209   -7.7816 C.2       6 UNK         0.5081 
     43 O          25.0375    4.7689   -8.5664 O.2       6 UNK        -0.5248 
     44 N          24.9348    2.5400   -8.1600 N.am      7 UNK        -0.4718 
     45 CA         24.8912    2.0740   -9.5507 C.3       7 UNK         0.0273 
     46 CB         24.3007    0.6548   -9.5818 C.3       7 UNK        -0.1935 
     47 C          26.2629    2.1007  -10.2589 C.2       7 UNK         0.5018 
     48 O          26.3113    1.8482  -11.4634 O.2       7 UNK        -0.5186 
     49 N          27.3398    2.3885   -9.5111 N.am      8 UNK        -0.4240 
     50 CA         28.7452    2.4381   -9.9297 C.3       8 UNK         0.0235 
     51 CB         28.9764    3.5251  -11.0014 C.3       8 UNK        -0.2000 
     52 C          29.3271    1.0664  -10.3260 C.2       8 UNK         0.4941 
     53 O          30.2885    1.0110  -11.0953 O.2       8 UNK        -0.5273 
     54 N          28.7832   -0.0161   -9.7556 N.am      9 UNK        -0.4262 
     55 CA         29.3305   -1.3698   -9.8260 C.3       9 UNK         0.0264 
     56 CB         28.1685   -2.3739   -9.9289 C.3       9 UNK        -0.1955 
     57 C          30.1981   -1.5731   -8.5747 C.2       9 UNK         0.5031 
     58 O          29.7960   -2.2726   -7.6431 O.2       9 UNK        -0.5390 
     59 N          31.3373   -0.8738   -8.5550 N.am      10 UNK        -0.4204 
     60 CA         32.1862   -0.6675   -7.3859 C.3       10 UNK         0.0237 
     61 CB         32.0558    0.8105   -6.9735 C.3       10 UNK        -0.1985 
     62 C          33.6496   -1.0057   -7.6870 C.2       10 UNK         0.4970 
     63 O          34.0156   -1.2068   -8.8476 O.2       10 UNK        -0.4914 
     64 N          34.4641   -1.0099   -6.6244 N.am      11 UNK        -0.4285 
     65 CA         35.9293   -1.1408   -6.6711 C.3       11 UNK         0.1007 
     66 C          36.6678    0.0087   -7.4209 C.2       11 UNK         0.5703 
     67 N          36.0676    1.1792   -7.6062 N.am      11 UNK        -0.7361 
     68 O          37.8082   -0.1691   -7.8425 O.2       11 UNK        -0.4986 
     69 C69        36.5248   -1.3105   -5.2483 C.3       12 UNK        -0.0947 
     70 S70        36.0218   -2.8629   -4.4359 S.3       12 UNK        -0.2240 
     71 C71        35.0093   -2.2770   -3.0368 C.3       12 UNK         0.0194 
     72 H72        24.4000   -7.3517   -4.4384 H         1 UNK         0.0906 
     73 H73        26.0186   -7.1896   -5.1220 H         1 UNK         0.0906 
     74 H74        25.6968   -8.4240   -3.9026 H         1 UNK         0.0906 
     75 H75        27.1079   -5.4212   -4.2882 H         1 UNK         0.3140 
     76 H76        27.2375   -4.8706   -1.4512 H         1 UNK         0.1085 
     77 H77        28.8193   -3.1003   -2.0559 H         1 UNK         0.0836 
     78 H78        28.3274   -3.1453   -3.7213 H         1 UNK         0.0836 
     79 H79        29.8882   -3.9405   -5.3702 H         1 UNK         0.0731 
     80 H80        31.2642   -4.9724   -5.0826 H         1 UNK         0.0731 
     81 H81        33.2546   -4.1528   -3.9063 H         1 UNK         0.1312 
     82 H82        33.5094    0.0201   -2.9449 H         1 UNK         0.1406 
     83 H83        29.8295   -1.6336   -4.3967 H         1 UNK         0.1631 
     84 H84        30.8902    1.1956   -4.4335 H         1 UNK         0.0717 
     85 H85        31.4865    1.3386   -2.7997 H         1 UNK         0.0717 
     86 H86        27.5226    2.2384   -3.0834 H         1 UNK         0.0934 
     87 H87        29.0590    2.7959   -3.6907 H         1 UNK         0.0934 
     88 H88        28.8407    1.2989   -5.6848 H         1 UNK         0.0739 
     89 H89        26.6066    0.1357   -4.3062 H         1 UNK         0.3093 
     90 H90        25.0785   -1.2791   -7.1951 H         1 UNK         0.0818 
     91 H91        26.7831   -2.8578   -5.2216 H         1 UNK         0.0819 
     92 H92        25.5184   -3.5040   -6.2579 H         1 UNK         0.0819 
     93 H93        27.0056   -2.8780   -6.9565 H         1 UNK         0.0819 
     94 H94        24.6866   -1.8268   -4.4236 H         1 UNK         0.3041 
     95 H95        23.0647    1.1547   -3.5160 H         1 UNK         0.0784 
     96 H96        21.1588    0.2113   -4.8393 H         1 UNK         0.0793 
     97 H97        21.5140   -1.3962   -4.2215 H         1 UNK         0.0793 
     98 H98        20.9748   -0.1218   -3.1261 H         1 UNK         0.0793 
     99 H99        22.9819   -1.3290   -2.1985 H         1 UNK         0.3024 
    100 H100       25.6963   -0.7764   -0.1796 H         1 UNK         0.1171 
    101 H101       24.2508   -2.5449    0.7245 H         1 UNK         0.0786 
    102 H102       23.2403   -1.2514    0.1141 H         1 UNK         0.0786 
    103 H103       23.4216   -2.7434   -0.8109 H         1 UNK         0.0786 
    104 H104       26.9258   -2.5695   -0.6724 H         1 UNK         0.2977 
    105 H105       25.4963    2.3734   -5.0487 H         1 UNK         0.3127 
    106 H106       25.8232    5.0127   -6.1838 H         1 UNK         0.0770 
    107 H107       23.2803    3.3863   -5.6342 H         1 UNK         0.0814 
    108 H108       23.3498    5.1005   -6.0068 H         1 UNK         0.0814 
    109 H109       24.0476    4.5072   -4.5090 H         1 UNK         0.0814 
    110 H110       24.8785    1.8306   -7.4371 H         1 UNK         0.2983 
    111 H111       24.2245    2.7337  -10.1103 H         1 UNK         0.0947 
    112 H112       24.1025    0.3395  -10.6070 H         1 UNK         0.0806 
    113 H113       23.3583    0.5982   -9.0363 H         1 UNK         0.0806 
    114 H114       24.9873   -0.0726   -9.1503 H         1 UNK         0.0806 
    115 H115       27.1831    2.5530   -8.5248 H         1 UNK         0.3000 
    116 H116       29.3003    2.7405   -9.0403 H         1 UNK         0.0850 
    117 H117       30.0413    3.6753  -11.1825 H         1 UNK         0.0810 
    118 H118       28.5644    4.4845  -10.6885 H         1 UNK         0.0810 
    119 H119       28.5215    3.2582  -11.9556 H         1 UNK         0.0810 
    120 H120       28.0662    0.1222   -9.0436 H         1 UNK         0.3040 
    121 H121       29.9635   -1.4917  -10.7076 H         1 UNK         0.0766 
    122 H122       28.5326   -3.4013   -9.8917 H         1 UNK         0.0812 
    123 H123       27.6279   -2.2524  -10.8674 H         1 UNK         0.0812 
    124 H124       27.4526   -2.2466   -9.1177 H         1 UNK         0.0812 
    125 H125       31.6190   -0.3824   -9.3937 H         1 UNK         0.3205 
    126 H126       31.8624   -1.3088   -6.5669 H         1 UNK         0.0754 
    127 H127       32.4221    1.4795   -7.7536 H         1 UNK         0.0769 
    128 H128       32.6223    1.0267   -6.0675 H         1 UNK         0.0769 
    129 H129       31.0160    1.0734   -6.7814 H         1 UNK         0.0769 
    130 H130       34.0692   -0.8710   -5.7061 H         1 UNK         0.2981 
    131 H131       36.1460   -2.0500   -7.2351 H         1 UNK         0.0541 
    132 H132       35.1366    1.3402   -7.2601 H         1 UNK         0.3459 
    133 H133       36.5583    1.9109   -8.0954 H         1 UNK         0.3459 
    134 H134       36.2628   -0.4565   -4.6215 H         1 UNK         0.0612 
    135 H135       37.6158   -1.3272   -5.2894 H         1 UNK         0.0612 
    136 H136       35.4399   -1.3659   -2.6189 H         1 UNK         0.0624 
    137 H137       35.0573   -3.0241   -2.2433 H         1 UNK         0.0624 
@<TRIPOS>BOND
     1    1    2 1    
     2    1   72 1    
     3    1   73 1    
     4    1   74 1    
     5    2    3 2    
     6    2    4 am   BACKBONE|DICT|INTERRES
     7    4    5 1    
     8    4   75 1    
     9    5    6 1    
    10    5   35 1    
    11    5   76 1    
    12    6    7 1    
    13    6   77 1    
    14    6   78 1    
    15    7    8 1    
    16    8    9 1    
    17    8   79 1    
    18    8   80 1    
    19    9   10 ar   
    20    9   14 ar   
    21   10   11 ar   
    22   10   81 1    
    23   11   12 ar   
    24   11   71 1    
    25   12   13 ar   
    26   12   82 1    
    27   13   14 ar   
    28   13   15 1    
    29   14   83 1    
    30   15   16 1    
    31   15   84 1    
    32   15   85 1    
    33   16   17 1    
    34   17   18 1    
    35   17   86 1    
    36   17   87 1    
    37   18   19 1    
    38   18   37 1    
    39   18   88 1    
    40   19   20 am   BACKBONE|DICT|INTERRES
    41   19   89 1    
    42   20   21 2    
    43   20   22 1    
    44   22   23 1    
    45   22   24 1    
    46   22   90 1    
    47   23   91 1    
    48   23   92 1    
    49   23   93 1    
    50   24   25 am   BACKBONE|DICT|INTERRES
    51   24   94 1    
    52   25   26 2    
    53   25   27 1    
    54   27   28 1    
    55   27   29 1    
    56   27   95 1    
    57   28   96 1    
    58   28   97 1    
    59   28   98 1    
    60   29   30 am   BACKBONE|DICT|INTERRES
    61   29   99 1    
    62   30   31 2    
    63   30   32 1    
    64   32   33 1    
    65   32   34 1    
    66   32  100 1    
    67   33  101 1    
    68   33  102 1    
    69   33  103 1    
    70   34   35 am   BACKBONE|DICT|INTERRES
    71   34  104 1    
    72   35   36 2    
    73   37   38 2    
    74   37   39 am   BACKBONE|DICT|INTERRES
    75   39   40 1    
    76   39  105 1    
    77   40   41 1    
    78   40   42 1    
    79   40  106 1    
    80   41  107 1    
    81   41  108 1    
    82   41  109 1    
    83   42   43 2    
    84   42   44 am   BACKBONE|DICT|INTERRES
    85   44   45 1    
    86   44  110 1    
    87   45   46 1    
    88   45   47 1    
    89   45  111 1    
    90   46  112 1    
    91   46  113 1    
    92   46  114 1    
    93   47   48 2    
    94   47   49 am   BACKBONE|DICT|INTERRES
    95   49   50 1    
    96   49  115 1    
    97   50   51 1    
    98   50   52 1    
    99   50  116 1    
   100   51  117 1    
   101   51  118 1    
   102   51  119 1    
   103   52   53 2    
   104   52   54 am   BACKBONE|DICT|INTERRES
   105   54   55 1    
   106   54  120 1    
   107   55   56 1    
   108   55   57 1    
   109   55  121 1    
   110   56  122 1    
   111   56  123 1    
   112   56  124 1    
   113   57   58 2    
   114   57   59 am   BACKBONE|DICT|INTERRES
   115   59   60 1    
   116   59  125 1    
   117   60   61 1    
   118   60   62 1    
   119   60  126 1    
   120   61  127 1    
   121   61  128 1    
   122   61  129 1    
   123   62   63 2    
   124   62   64 am   BACKBONE|DICT|INTERRES
   125   64   65 1    
   126   64  130 1    
   127   65   66 1    
   128   65   69 1    
   129   65  131 1    
   130   66   67 am   BACKBONE|DICT|INTERRES
   131   66   68 2    
   132   67  132 1    
   133   67  133 1    
   134   69   70 1    
   135   69  134 1    
   136   69  135 1    
   137   70   71 1    
   138   71  136 1    
   139   71  137 1    
@<TRIPOS>SUBSTRUCTURE
     1 UNK         1 GROUP             0       ****    0 ROOT    
