@<TRIPOS>MOLECULE
3R137
137   139    1
SMALL
USER_CHARGES


@<TRIPOS>ATOM
      1 CA         23.0125   -5.6716   -2.1373 C.3       0 UNK        -0.2020 
      2 C          24.3004   -4.9125   -2.4162 C.2       0 UNK         0.4855 
      3 O          24.4420   -4.3335   -3.4936 O.2       0 UNK        -0.5197 
      4 N          25.2287   -4.8970   -1.4465 N.am      1 UNK        -0.4892 
      5 CA         26.5461   -4.2456   -1.5114 C.3       1 UNK         0.0835 
      6 C6         27.5170   -5.0050   -2.4571 C.3       12 UNK        -0.0855 
      7 S7         29.2796   -4.6143   -2.1619 S.3       12 UNK        -0.2931 
      8 C8         29.8247   -4.0368   -3.8106 C.3       12 UNK         0.0378 
      9 C9         30.6405   -2.7477   -3.7822 C.ar      12 UNK        -0.0802 
     10 C10        31.6956   -2.5768   -4.6849 C.ar      12 UNK        -0.0944 
     11 C11        32.4203   -1.3811   -4.7156 C.ar      12 UNK        -0.0787 
     12 C12        32.0869   -0.3501   -3.8342 C.ar      12 UNK        -0.0862 
     13 C13        31.0222   -0.4980   -2.9438 C.ar      12 UNK        -0.0733 
     14 C14        30.3086   -1.6990   -2.9176 C.ar      12 UNK        -0.0832 
     15 C15        30.6303    0.6521   -2.0300 C.3       12 UNK         0.0240 
     16 S16        29.6486    1.9044   -2.9172 S.3       12 UNK        -0.2522 
     17 C17        28.1005    1.0002   -3.2534 C.3       12 UNK        -0.0967 
     18 CA         27.8350    0.7934   -4.7693 C.3       5 UNK         0.0660 
     19 N          27.0467   -0.4197   -5.0326 N.am      5 UNK        -0.4015 
     20 C          26.6646   -0.8565   -6.2442 C.2       4 UNK         0.4946 
     21 O          26.9945   -0.3261   -7.3031 O.2       4 UNK        -0.5353 
     22 CA         25.6954   -2.0500   -6.2943 C.3       4 UNK         0.0277 
     23 CB         26.4479   -3.3809   -6.1957 C.3       4 UNK        -0.1981 
     24 N          24.6652   -1.9799   -5.2573 N.am      4 UNK        -0.4209 
     25 C          23.7174   -1.0324   -5.2105 C.2       3 UNK         0.4942 
     26 O          23.5657   -0.1714   -6.0769 O.2       3 UNK        -0.5208 
     27 CA         22.8314   -1.0001   -3.9562 C.3       3 UNK         0.0250 
     28 CB         21.7328   -2.0733   -4.0214 C.3       3 UNK        -0.1990 
     29 N          23.6173   -1.1524   -2.7294 N.am      3 UNK        -0.4232 
     30 C          24.5117   -0.2527   -2.2941 C.2       2 UNK         0.4993 
     31 O          24.7320    0.8195   -2.8573 O.2       2 UNK        -0.5286 
     32 CA         25.3232   -0.6202   -1.0404 C.3       2 UNK         0.0209 
     33 CB         24.5873   -0.1622    0.2287 C.3       2 UNK        -0.1931 
     34 N          25.6339   -2.0498   -0.9378 N.am      2 UNK        -0.4546 
     35 C          26.4024   -2.7325   -1.8003 C.2       1 UNK         0.5154 
     36 O          26.9146   -2.2228   -2.7985 O.2       1 UNK        -0.5181 
     37 C          27.1846    2.0521   -5.3822 C.2       5 UNK         0.5014 
     38 O          27.8570    2.8129   -6.0800 O.2       5 UNK        -0.5248 
     39 N          25.8805    2.2307   -5.1221 N.am      6 UNK        -0.4434 
     40 CA         25.0647    3.3186   -5.6617 C.3       6 UNK         0.0363 
     41 CB         23.6991    3.3315   -4.9565 C.3       6 UNK        -0.1936 
     42 C          24.8875    3.2448   -7.1882 C.2       6 UNK         0.5081 
     43 O          24.8770    4.2902   -7.8391 O.2       6 UNK        -0.5248 
     44 N          24.7467    2.0267   -7.7303 N.am      7 UNK        -0.4718 
     45 CA         24.6158    1.7696   -9.1649 C.3       7 UNK         0.0273 
     46 CB         24.1263    0.3309   -9.4001 C.3       7 UNK        -0.1935 
     47 C          25.9155    2.0497   -9.9373 C.2       7 UNK         0.5018 
     48 O          25.8918    2.8470  -10.8764 O.2       7 UNK        -0.5186 
     49 N          27.0165    1.4009   -9.5353 N.am      8 UNK        -0.4240 
     50 CA         28.3341    1.5158  -10.1572 C.3       8 UNK         0.0235 
     51 CB         28.3357    0.9090  -11.5785 C.3       8 UNK        -0.2000 
     52 C          29.3714    0.8221   -9.2677 C.2       8 UNK         0.4941 
     53 O          29.5315   -0.3982   -9.3543 O.2       8 UNK        -0.5273 
     54 N          30.0904    1.6038   -8.4523 N.am      9 UNK        -0.4262 
     55 CA         31.1991    1.1548   -7.6015 C.3       9 UNK         0.0264 
     56 CB         31.4623    2.2253   -6.5258 C.3       9 UNK        -0.1955 
     57 C          32.4677    0.8183   -8.4178 C.2       9 UNK         0.5031 
     58 O          33.5248    1.4165   -8.2049 O.2       9 UNK        -0.5390 
     59 N          32.3479   -0.1392   -9.3442 N.am      10 UNK        -0.4204 
     60 CA         33.3824   -0.5779  -10.2846 C.3       10 UNK         0.0237 
     61 CB         32.6931   -1.2240  -11.5016 C.3       10 UNK        -0.1985 
     62 C          34.4391   -1.4997   -9.6392 C.2       10 UNK         0.4970 
     63 O          34.6563   -2.6157  -10.1148 O.2       10 UNK        -0.4914 
     64 N          35.0814   -1.0154   -8.5707 N.am      11 UNK        -0.4285 
     65 CA         36.1980   -1.6847   -7.8795 C.3       11 UNK         0.1007 
     66 C          37.5748   -1.4831   -8.5804 C.2       11 UNK         0.5703 
     67 N          37.6999   -0.6175   -9.5804 N.am      11 UNK        -0.7361 
     68 O          38.5490   -2.1384   -8.2177 O.2       11 UNK        -0.4986 
     69 C69        36.2615   -1.2814   -6.3796 C.3       12 UNK        -0.0947 
     70 S70        35.0180   -2.1263   -5.3449 S.3       12 UNK        -0.2240 
     71 C71        33.5239   -1.1760   -5.7381 C.3       12 UNK         0.0194 
     72 H72        22.1613   -4.9924   -2.1729 H         1 UNK         0.0906 
     73 H73        22.8637   -6.4431   -2.8921 H         1 UNK         0.0906 
     74 H74        23.0238   -6.1520   -1.1593 H         1 UNK         0.0906 
     75 H75        25.0345   -5.3837   -0.5814 H         1 UNK         0.3140 
     76 H76        26.9606   -4.3155   -0.5040 H         1 UNK         0.1085 
     77 H77        27.2392   -4.8564   -3.4988 H         1 UNK         0.0836 
     78 H78        27.4124   -6.0781   -2.2901 H         1 UNK         0.0836 
     79 H79        28.9708   -3.8592   -4.4596 H         1 UNK         0.0731 
     80 H80        30.3985   -4.8400   -4.2754 H         1 UNK         0.0731 
     81 H81        31.9471   -3.3680   -5.3782 H         1 UNK         0.1312 
     82 H82        32.6355    0.5814   -3.8578 H         1 UNK         0.1406 
     83 H83        29.4780   -1.8121   -2.2356 H         1 UNK         0.1631 
     84 H84        31.5297    1.1251   -1.6329 H         1 UNK         0.0717 
     85 H85        30.0696    0.2908   -1.1664 H         1 UNK         0.0717 
     86 H86        28.1489    0.0401   -2.7450 H         1 UNK         0.0934 
     87 H87        27.2823    1.5327   -2.7658 H         1 UNK         0.0934 
     88 H88        28.7910    0.6359   -5.2736 H         1 UNK         0.0739 
     89 H89        26.7892   -0.9772   -4.2216 H         1 UNK         0.3093 
     90 H90        25.1916   -2.0247   -7.2624 H         1 UNK         0.0818 
     91 H91        27.2327   -3.4486   -6.9504 H         1 UNK         0.0819 
     92 H92        26.9144   -3.4864   -5.2208 H         1 UNK         0.0819 
     93 H93        25.7776   -4.2286   -6.3389 H         1 UNK         0.0819 
     94 H94        24.7016   -2.6813   -4.5211 H         1 UNK         0.3041 
     95 H95        22.3458   -0.0223   -3.9206 H         1 UNK         0.0784 
     96 H96        21.1114   -1.9364   -4.9075 H         1 UNK         0.0793 
     97 H97        22.1464   -3.0805   -4.0697 H         1 UNK         0.0793 
     98 H98        21.0743   -2.0210   -3.1542 H         1 UNK         0.0793 
     99 H99        23.5247   -2.0226   -2.2269 H         1 UNK         0.3024 
    100 H100       26.2695   -0.0790   -1.0960 H         1 UNK         0.1171 
    101 H101       25.1924   -0.3277    1.1203 H         1 UNK         0.0786 
    102 H102       24.3636    0.9049    0.1855 H         1 UNK         0.0786 
    103 H103       23.6411   -0.6883    0.3613 H         1 UNK         0.0786 
    104 H104       25.2259   -2.5489   -0.1601 H         1 UNK         0.2977 
    105 H105       25.4154    1.5851   -4.4875 H         1 UNK         0.3127 
    106 H106       25.5740    4.2575   -5.4342 H         1 UNK         0.0770 
    107 H107       23.1498    2.4044   -5.1248 H         1 UNK         0.0814 
    108 H108       23.0784    4.1508   -5.3215 H         1 UNK         0.0814 
    109 H109       23.8101    3.4620   -3.8798 H         1 UNK         0.0814 
    110 H110       24.7048    1.2217   -7.1137 H         1 UNK         0.2983 
    111 H111       23.8513    2.4459   -9.5540 H         1 UNK         0.0947 
    112 H112       24.8348   -0.4065   -9.0238 H         1 UNK         0.0806 
    113 H113       23.9880    0.1359  -10.4643 H         1 UNK         0.0806 
    114 H114       23.1688    0.1534   -8.9101 H         1 UNK         0.0806 
    115 H115       26.9644    0.7760   -8.7276 H         1 UNK         0.3000 
    116 H116       28.5920    2.5743  -10.2327 H         1 UNK         0.0850 
    117 H117       29.3428    0.8997  -11.9977 H         1 UNK         0.0810 
    118 H118       27.7115    1.4804  -12.2648 H         1 UNK         0.0810 
    119 H119       27.9740   -0.1200  -11.5764 H         1 UNK         0.0810 
    120 H120       29.8873    2.5932   -8.4301 H         1 UNK         0.3040 
    121 H121       30.8921    0.2399   -7.0894 H         1 UNK         0.0766 
    122 H122       30.5830    2.3875   -5.9028 H         1 UNK         0.0812 
    123 H123       31.7416    3.1822   -6.9679 H         1 UNK         0.0812 
    124 H124       32.2735    1.9266   -5.8620 H         1 UNK         0.0812 
    125 H125       31.4263   -0.5603   -9.4450 H         1 UNK         0.3205 
    126 H126       33.9143    0.3063  -10.6423 H         1 UNK         0.0754 
    127 H127       33.4230   -1.5187  -12.2570 H         1 UNK         0.0769 
    128 H128       31.9995   -0.5309  -11.9786 H         1 UNK         0.0769 
    129 H129       32.1328   -2.1167  -11.2205 H         1 UNK         0.0769 
    130 H130       34.8346   -0.0834   -8.2529 H         1 UNK         0.2981 
    131 H131       36.0208   -2.7612   -7.9193 H         1 UNK         0.0541 
    132 H132       36.9124   -0.0709   -9.8882 H         1 UNK         0.3459 
    133 H133       38.5973   -0.5057  -10.0255 H         1 UNK         0.3459 
    134 H134       37.2287   -1.5444   -5.9470 H         1 UNK         0.0612 
    135 H135       36.1708   -0.2004   -6.2603 H         1 UNK         0.0612 
    136 H136       33.7794   -0.1185   -5.8145 H         1 UNK         0.0624 
    137 H137       33.1561   -1.4875   -6.7153 H         1 UNK         0.0624 
@<TRIPOS>BOND
     1    1    2 1    
     2    1   72 1    
     3    1   73 1    
     4    1   74 1    
     5    2    3 2    
     6    2    4 am   BACKBONE|DICT|INTERRES
     7    4    5 1    
     8    4   75 1    
     9    5    6 1    
    10    5   35 1    
    11    5   76 1    
    12    6    7 1    
    13    6   77 1    
    14    6   78 1    
    15    7    8 1    
    16    8    9 1    
    17    8   79 1    
    18    8   80 1    
    19    9   10 ar   
    20    9   14 ar   
    21   10   11 ar   
    22   10   81 1    
    23   11   12 ar   
    24   11   71 1    
    25   12   13 ar   
    26   12   82 1    
    27   13   14 ar   
    28   13   15 1    
    29   14   83 1    
    30   15   16 1    
    31   15   84 1    
    32   15   85 1    
    33   16   17 1    
    34   17   18 1    
    35   17   86 1    
    36   17   87 1    
    37   18   19 1    
    38   18   37 1    
    39   18   88 1    
    40   19   20 am   BACKBONE|DICT|INTERRES
    41   19   89 1    
    42   20   21 2    
    43   20   22 1    
    44   22   23 1    
    45   22   24 1    
    46   22   90 1    
    47   23   91 1    
    48   23   92 1    
    49   23   93 1    
    50   24   25 am   BACKBONE|DICT|INTERRES
    51   24   94 1    
    52   25   26 2    
    53   25   27 1    
    54   27   28 1    
    55   27   29 1    
    56   27   95 1    
    57   28   96 1    
    58   28   97 1    
    59   28   98 1    
    60   29   30 am   BACKBONE|DICT|INTERRES
    61   29   99 1    
    62   30   31 2    
    63   30   32 1    
    64   32   33 1    
    65   32   34 1    
    66   32  100 1    
    67   33  101 1    
    68   33  102 1    
    69   33  103 1    
    70   34   35 am   BACKBONE|DICT|INTERRES
    71   34  104 1    
    72   35   36 2    
    73   37   38 2    
    74   37   39 am   BACKBONE|DICT|INTERRES
    75   39   40 1    
    76   39  105 1    
    77   40   41 1    
    78   40   42 1    
    79   40  106 1    
    80   41  107 1    
    81   41  108 1    
    82   41  109 1    
    83   42   43 2    
    84   42   44 am   BACKBONE|DICT|INTERRES
    85   44   45 1    
    86   44  110 1    
    87   45   46 1    
    88   45   47 1    
    89   45  111 1    
    90   46  112 1    
    91   46  113 1    
    92   46  114 1    
    93   47   48 2    
    94   47   49 am   BACKBONE|DICT|INTERRES
    95   49   50 1    
    96   49  115 1    
    97   50   51 1    
    98   50   52 1    
    99   50  116 1    
   100   51  117 1    
   101   51  118 1    
   102   51  119 1    
   103   52   53 2    
   104   52   54 am   BACKBONE|DICT|INTERRES
   105   54   55 1    
   106   54  120 1    
   107   55   56 1    
   108   55   57 1    
   109   55  121 1    
   110   56  122 1    
   111   56  123 1    
   112   56  124 1    
   113   57   58 2    
   114   57   59 am   BACKBONE|DICT|INTERRES
   115   59   60 1    
   116   59  125 1    
   117   60   61 1    
   118   60   62 1    
   119   60  126 1    
   120   61  127 1    
   121   61  128 1    
   122   61  129 1    
   123   62   63 2    
   124   62   64 am   BACKBONE|DICT|INTERRES
   125   64   65 1    
   126   64  130 1    
   127   65   66 1    
   128   65   69 1    
   129   65  131 1    
   130   66   67 am   BACKBONE|DICT|INTERRES
   131   66   68 2    
   132   67  132 1    
   133   67  133 1    
   134   69   70 1    
   135   69  134 1    
   136   69  135 1    
   137   70   71 1    
   138   71  136 1    
   139   71  137 1    
@<TRIPOS>SUBSTRUCTURE
     1 UNK         1 GROUP             0       ****    0 ROOT    
