@<TRIPOS>MOLECULE
3R137
137   139    1
SMALL
USER_CHARGES


@<TRIPOS>ATOM
      1 CA         27.3835   -8.5886   -2.6431 C.3       0 UNK        -0.2020 
      2 C          26.5723   -7.4615   -2.0222 C.2       0 UNK         0.4855 
      3 O          25.6467   -7.7239   -1.2540 O.2       0 UNK        -0.5197 
      4 N          26.9139   -6.2080   -2.3471 N.am      1 UNK        -0.4892 
      5 CA         26.2243   -4.9977   -1.8802 C.3       1 UNK         0.0835 
      6 C6         27.0918   -3.7274   -2.0763 C.3       12 UNK        -0.0855 
      7 S7         27.7450   -3.5176   -3.7766 S.3       12 UNK        -0.2931 
      8 C8         29.5422   -3.6910   -3.5217 C.3       12 UNK         0.0378 
      9 C9         30.2297   -2.3541   -3.2659 C.ar      12 UNK        -0.0802 
     10 C10        31.0781   -1.8065   -4.2350 C.ar      12 UNK        -0.0944 
     11 C11        31.7479   -0.6032   -3.9940 C.ar      12 UNK        -0.0787 
     12 C12        31.5630    0.0584   -2.7789 C.ar      12 UNK        -0.0862 
     13 C13        30.6984   -0.4618   -1.8135 C.ar      12 UNK        -0.0733 
     14 C14        30.0449   -1.6738   -2.0565 C.ar      12 UNK        -0.0832 
     15 C15        30.4645    0.2910   -0.5125 C.3       12 UNK         0.0240 
     16 S16        28.9672    1.3258   -0.5953 S.3       12 UNK        -0.2522 
     17 C17        29.4511    2.6098   -1.8036 C.3       12 UNK        -0.0967 
     18 CA         28.8469    2.3704   -3.2147 C.3       5 UNK         0.0660 
     19 N          27.3791    2.2861   -3.1580 N.am      5 UNK        -0.4015 
     20 C          26.5615    1.7635   -4.0807 C.2       4 UNK         0.4946 
     21 O          26.9356    1.3664   -5.1897 O.2       4 UNK        -0.5353 
     22 CA         25.0646    1.7499   -3.7245 C.3       4 UNK         0.0277 
     23 CB         24.4364    3.1280   -3.9932 C.3       4 UNK        -0.1981 
     24 N          24.3329    0.7326   -4.4830 N.am      4 UNK        -0.4209 
     25 C          24.4862   -0.5868   -4.3151 C.2       3 UNK         0.4942 
     26 O          25.1753   -1.0888   -3.4238 O.2       3 UNK        -0.5208 
     27 CA         23.7419   -1.4885   -5.3093 C.3       3 UNK         0.0250 
     28 CB         24.2690   -1.3063   -6.7441 C.3       3 UNK        -0.1990 
     29 N          23.9214   -2.8812   -4.9121 N.am      3 UNK        -0.4232 
     30 C          23.0070   -3.8516   -5.0117 C.2       2 UNK         0.4993 
     31 O          21.8874   -3.6835   -5.4978 O.2       2 UNK        -0.5286 
     32 CA         23.3948   -5.2543   -4.5019 C.3       2 UNK         0.0209 
     33 CB         23.4962   -6.2463   -5.6733 C.3       2 UNK        -0.1931 
     34 N          24.6502   -5.2960   -3.7448 N.am      2 UNK        -0.4546 
     35 C          24.8185   -4.8347   -2.4972 C.2       1 UNK         0.5154 
     36 O          23.9183   -4.3150   -1.8361 O.2       1 UNK        -0.5181 
     37 C          29.3667    3.3945   -4.2576 C.2       5 UNK         0.5014 
     38 O          30.2198    4.2266   -3.9430 O.2       5 UNK        -0.5248 
     39 N          28.8387    3.3030   -5.4798 N.am      6 UNK        -0.4434 
     40 CA         29.1803    4.0497   -6.6878 C.3       6 UNK         0.0363 
     41 CB         28.8616    5.5514   -6.5475 C.3       6 UNK        -0.1936 
     42 C          28.4070    3.4313   -7.8585 C.2       6 UNK         0.5081 
     43 O          29.0064    3.0781   -8.8742 O.2       6 UNK        -0.5248 
     44 N          27.0905    3.2490   -7.6629 N.am      7 UNK        -0.4718 
     45 CA         26.1582    2.6052   -8.5983 C.3       7 UNK         0.0273 
     46 CB         24.7309    2.7096   -8.0395 C.3       7 UNK        -0.1935 
     47 C          26.4993    1.1384   -8.9205 C.2       7 UNK         0.5018 
     48 O          26.1209    0.6552   -9.9876 O.2       7 UNK        -0.5186 
     49 N          27.2386    0.4752   -8.0191 N.am      8 UNK        -0.4240 
     50 CA         27.8481   -0.8437   -8.2061 C.3       8 UNK         0.0235 
     51 CB         28.5124   -1.2709   -6.8860 C.3       8 UNK        -0.2000 
     52 C          28.8551   -0.9312   -9.3725 C.2       8 UNK         0.4941 
     53 O          29.1752   -2.0461   -9.7864 O.2       8 UNK        -0.5273 
     54 N          29.3470    0.2135   -9.8787 N.am      9 UNK        -0.4262 
     55 CA         30.2005    0.4132  -11.0638 C.3       9 UNK         0.0264 
     56 CB         29.5156   -0.1057  -12.3426 C.3       9 UNK        -0.1955 
     57 C          31.6351   -0.1322  -10.9469 C.2       9 UNK         0.5031 
     58 O          32.5639    0.5139  -11.4353 O.2       9 UNK        -0.5390 
     59 N          31.8095   -1.2673  -10.2579 N.am      10 UNK        -0.4204 
     60 CA         33.0909   -1.8942   -9.9086 C.3       10 UNK         0.0237 
     61 CB         32.8099   -3.2276   -9.1964 C.3       10 UNK        -0.1985 
     62 C          34.0113   -1.0087   -9.0444 C.2       10 UNK         0.4970 
     63 O          35.2076   -1.2865   -8.9549 O.2       10 UNK        -0.4914 
     64 N          33.4385    0.0382   -8.4394 N.am      11 UNK        -0.4285 
     65 CA         34.1224    1.1018   -7.6965 C.3       11 UNK         0.1007 
     66 C          35.0993    1.9609   -8.5520 C.2       11 UNK         0.5703 
     67 N          34.9692    1.9946   -9.8746 N.am      11 UNK        -0.7361 
     68 O          35.9886    2.6068   -8.0029 O.2       11 UNK        -0.4986 
     69 C69        33.1042    2.0229   -6.9677 C.3       12 UNK        -0.0947 
     70 S70        31.7521    1.1622   -6.0933 S.3       12 UNK        -0.2240 
     71 C71        32.6661   -0.0034   -5.0432 C.3       12 UNK         0.0194 
     72 H72        27.8451   -9.1926   -1.8625 H         1 UNK         0.0906 
     73 H73        26.7357   -9.2344   -3.2354 H         1 UNK         0.0906 
     74 H74        28.1740   -8.2134   -3.2929 H         1 UNK         0.0906 
     75 H75        27.6799   -6.0452   -2.9857 H         1 UNK         0.3140 
     76 H76        26.0635   -5.1134   -0.8056 H         1 UNK         0.1085 
     77 H77        27.9213   -3.7712   -1.3713 H         1 UNK         0.0836 
     78 H78        26.5340   -2.8289   -1.8043 H         1 UNK         0.0836 
     79 H79        29.7476   -4.3773   -2.6990 H         1 UNK         0.0731 
     80 H80        29.9628   -4.1622   -4.4114 H         1 UNK         0.0731 
     81 H81        31.2221   -2.3173   -5.1773 H         1 UNK         0.1312 
     82 H82        32.0774    0.9919   -2.5968 H         1 UNK         0.1406 
     83 H83        29.3855   -2.0772   -1.3026 H         1 UNK         0.1631 
     84 H84        31.3267    0.9116   -0.2633 H         1 UNK         0.0717 
     85 H85        30.3558   -0.4197    0.3081 H         1 UNK         0.0717 
     86 H86        29.1281    3.5775   -1.4150 H         1 UNK         0.0934 
     87 H87        30.5399    2.6617   -1.8487 H         1 UNK         0.0934 
     88 H88        29.2014    1.3979   -3.5625 H         1 UNK         0.0739 
     89 H89        26.9715    2.6116   -2.2938 H         1 UNK         0.3093 
     90 H90        24.9637    1.5171   -2.6620 H         1 UNK         0.0818 
     91 H91        23.3771    3.1382   -3.7355 H         1 UNK         0.0819 
     92 H92        24.9175    3.9029   -3.3950 H         1 UNK         0.0819 
     93 H93        24.5298    3.4234   -5.0382 H         1 UNK         0.0819 
     94 H94        23.7539    1.0622   -5.2401 H         1 UNK         0.3041 
     95 H95        22.6830   -1.2237   -5.2697 H         1 UNK         0.0784 
     96 H96        24.1254   -0.2865   -7.1006 H         1 UNK         0.0793 
     97 H97        25.3343   -1.5271   -6.8003 H         1 UNK         0.0793 
     98 H98        23.7542   -1.9657   -7.4431 H         1 UNK         0.0793 
     99 H99        24.7884   -3.0687   -4.4234 H         1 UNK         0.3024 
    100 H100       22.5890   -5.5838   -3.8419 H         1 UNK         0.1171 
    101 H101       23.6952   -7.2586   -5.3209 H         1 UNK         0.0786 
    102 H102       24.2893   -5.9690   -6.3689 H         1 UNK         0.0786 
    103 H103       22.5642   -6.2812   -6.2395 H         1 UNK         0.0786 
    104 H104       25.4511   -5.7005   -4.2085 H         1 UNK         0.2977 
    105 H105       28.1567    2.5539   -5.6040 H         1 UNK         0.3127 
    106 H106       30.2480    3.9250   -6.8789 H         1 UNK         0.0770 
    107 H107       27.8219    5.7226   -6.2671 H         1 UNK         0.0814 
    108 H108       29.0383    6.0757   -7.4876 H         1 UNK         0.0814 
    109 H109       29.4917    6.0259   -5.7956 H         1 UNK         0.0814 
    110 H110       26.6909    3.5743   -6.7950 H         1 UNK         0.2983 
    111 H111       26.2032    3.1593   -9.5383 H         1 UNK         0.0947 
    112 H112       24.0075    2.2796   -8.7339 H         1 UNK         0.0806 
    113 H113       24.4410    3.7473   -7.8737 H         1 UNK         0.0806 
    114 H114       24.6330    2.1746   -7.0956 H         1 UNK         0.0806 
    115 H115       27.3948    0.9194   -7.1206 H         1 UNK         0.3000 
    116 H116       27.0458   -1.5474   -8.4341 H         1 UNK         0.0850 
    117 H117       29.3152   -0.5911   -6.5997 H         1 UNK         0.0810 
    118 H118       27.7932   -1.2945   -6.0663 H         1 UNK         0.0810 
    119 H119       28.9422   -2.2704   -6.9644 H         1 UNK         0.0810 
    120 H120       29.0653    1.0784   -9.4261 H         1 UNK         0.3040 
    121 H121       30.2947    1.4959  -11.1639 H         1 UNK         0.0766 
    122 H122       28.5276    0.3373  -12.4691 H         1 UNK         0.0812 
    123 H123       29.3981   -1.1897  -12.3329 H         1 UNK         0.0812 
    124 H124       30.1011    0.1480  -13.2274 H         1 UNK         0.0812 
    125 H125       30.9609   -1.7374   -9.9457 H         1 UNK         0.3205 
    126 H126       33.6221   -2.1007  -10.8398 H         1 UNK         0.0754 
    127 H127       32.2270   -3.8993   -9.8271 H         1 UNK         0.0769 
    128 H128       32.2591   -3.0786   -8.2664 H         1 UNK         0.0769 
    129 H129       33.7385   -3.7434   -8.9477 H         1 UNK         0.0769 
    130 H130       32.4461    0.1677   -8.5596 H         1 UNK         0.2981 
    131 H131       34.7358    0.6100   -6.9399 H         1 UNK         0.0541 
    132 H132       34.2329    1.4751  -10.3358 H         1 UNK         0.3459 
    133 H133       35.6078    2.5524  -10.4186 H         1 UNK         0.3459 
    134 H134       33.6209    2.6585   -6.2463 H         1 UNK         0.0612 
    135 H135       32.6304    2.7002   -7.6812 H         1 UNK         0.0612 
    136 H136       33.4978    0.5130   -4.5614 H         1 UNK         0.0624 
    137 H137       33.0999   -0.7920   -5.6597 H         1 UNK         0.0624 
@<TRIPOS>BOND
     1    1    2 1    
     2    1   72 1    
     3    1   73 1    
     4    1   74 1    
     5    2    3 2    
     6    2    4 am   BACKBONE|DICT|INTERRES
     7    4    5 1    
     8    4   75 1    
     9    5    6 1    
    10    5   35 1    
    11    5   76 1    
    12    6    7 1    
    13    6   77 1    
    14    6   78 1    
    15    7    8 1    
    16    8    9 1    
    17    8   79 1    
    18    8   80 1    
    19    9   10 ar   
    20    9   14 ar   
    21   10   11 ar   
    22   10   81 1    
    23   11   12 ar   
    24   11   71 1    
    25   12   13 ar   
    26   12   82 1    
    27   13   14 ar   
    28   13   15 1    
    29   14   83 1    
    30   15   16 1    
    31   15   84 1    
    32   15   85 1    
    33   16   17 1    
    34   17   18 1    
    35   17   86 1    
    36   17   87 1    
    37   18   19 1    
    38   18   37 1    
    39   18   88 1    
    40   19   20 am   BACKBONE|DICT|INTERRES
    41   19   89 1    
    42   20   21 2    
    43   20   22 1    
    44   22   23 1    
    45   22   24 1    
    46   22   90 1    
    47   23   91 1    
    48   23   92 1    
    49   23   93 1    
    50   24   25 am   BACKBONE|DICT|INTERRES
    51   24   94 1    
    52   25   26 2    
    53   25   27 1    
    54   27   28 1    
    55   27   29 1    
    56   27   95 1    
    57   28   96 1    
    58   28   97 1    
    59   28   98 1    
    60   29   30 am   BACKBONE|DICT|INTERRES
    61   29   99 1    
    62   30   31 2    
    63   30   32 1    
    64   32   33 1    
    65   32   34 1    
    66   32  100 1    
    67   33  101 1    
    68   33  102 1    
    69   33  103 1    
    70   34   35 am   BACKBONE|DICT|INTERRES
    71   34  104 1    
    72   35   36 2    
    73   37   38 2    
    74   37   39 am   BACKBONE|DICT|INTERRES
    75   39   40 1    
    76   39  105 1    
    77   40   41 1    
    78   40   42 1    
    79   40  106 1    
    80   41  107 1    
    81   41  108 1    
    82   41  109 1    
    83   42   43 2    
    84   42   44 am   BACKBONE|DICT|INTERRES
    85   44   45 1    
    86   44  110 1    
    87   45   46 1    
    88   45   47 1    
    89   45  111 1    
    90   46  112 1    
    91   46  113 1    
    92   46  114 1    
    93   47   48 2    
    94   47   49 am   BACKBONE|DICT|INTERRES
    95   49   50 1    
    96   49  115 1    
    97   50   51 1    
    98   50   52 1    
    99   50  116 1    
   100   51  117 1    
   101   51  118 1    
   102   51  119 1    
   103   52   53 2    
   104   52   54 am   BACKBONE|DICT|INTERRES
   105   54   55 1    
   106   54  120 1    
   107   55   56 1    
   108   55   57 1    
   109   55  121 1    
   110   56  122 1    
   111   56  123 1    
   112   56  124 1    
   113   57   58 2    
   114   57   59 am   BACKBONE|DICT|INTERRES
   115   59   60 1    
   116   59  125 1    
   117   60   61 1    
   118   60   62 1    
   119   60  126 1    
   120   61  127 1    
   121   61  128 1    
   122   61  129 1    
   123   62   63 2    
   124   62   64 am   BACKBONE|DICT|INTERRES
   125   64   65 1    
   126   64  130 1    
   127   65   66 1    
   128   65   69 1    
   129   65  131 1    
   130   66   67 am   BACKBONE|DICT|INTERRES
   131   66   68 2    
   132   67  132 1    
   133   67  133 1    
   134   69   70 1    
   135   69  134 1    
   136   69  135 1    
   137   70   71 1    
   138   71  136 1    
   139   71  137 1    
@<TRIPOS>SUBSTRUCTURE
     1 UNK         1 GROUP             0       ****    0 ROOT    
