@<TRIPOS>MOLECULE
3R137
137   139    1
SMALL
USER_CHARGES


@<TRIPOS>ATOM
      1 CA         29.5048   -5.5737   -4.6585 C.3       0 UNK        -0.2020 
      2 C          28.3849   -5.2975   -3.6682 C.2       0 UNK         0.4855 
      3 O          27.3149   -5.8990   -3.7693 O.2       0 UNK        -0.5197 
      4 N          28.6219   -4.3924   -2.7109 N.am      1 UNK        -0.4892 
      5 CA         27.6354   -3.9742   -1.7089 C.3       1 UNK         0.0835 
      6 C6         28.2742   -3.2709   -0.4780 C.3       12 UNK        -0.0855 
      7 S7         29.7685   -4.0996    0.1722 S.3       12 UNK        -0.2931 
      8 C8         30.9701   -2.7237    0.2488 C.3       12 UNK         0.0378 
      9 C9         31.1239   -1.9974   -1.0829 C.ar      12 UNK        -0.0802 
     10 C10        31.6124   -2.6777   -2.2018 C.ar      12 UNK        -0.0944 
     11 C11        31.7142   -2.0294   -3.4348 C.ar      12 UNK        -0.0787 
     12 C12        31.3314   -0.6884   -3.5430 C.ar      12 UNK        -0.0862 
     13 C13        30.8722    0.0154   -2.4248 C.ar      12 UNK        -0.0733 
     14 C14        30.7719   -0.6465   -1.1963 C.ar      12 UNK        -0.0832 
     15 C15        30.5332    1.4998   -2.5473 C.3       12 UNK         0.0240 
     16 S16        28.8549    1.9506   -1.9770 S.3       12 UNK        -0.2522 
     17 C17        27.7787    0.7875   -2.8759 C.3       12 UNK        -0.0967 
     18 CA         27.7136    1.0257   -4.4053 C.3       5 UNK         0.0660 
     19 N          27.4015   -0.2132   -5.1093 N.am      5 UNK        -0.4015 
     20 C          27.5415   -0.4154   -6.4244 C.2       4 UNK         0.4946 
     21 O          27.9722    0.4252   -7.2164 O.2       4 UNK        -0.5353 
     22 CA         27.1223   -1.7994   -6.9385 C.3       4 UNK         0.0277 
     23 CB         28.2611   -2.8097   -6.7248 C.3       4 UNK        -0.1981 
     24 N          25.9030   -2.2915   -6.2897 N.am      4 UNK        -0.4209 
     25 C          24.6871   -1.7504   -6.4513 C.2       3 UNK         0.4942 
     26 O          24.4593   -0.7736   -7.1639 O.2       3 UNK        -0.5208 
     27 CA         23.5355   -2.3882   -5.6565 C.3       3 UNK         0.0250 
     28 CB         23.1299   -3.7407   -6.2647 C.3       3 UNK        -0.1990 
     29 N          23.8395   -2.5552   -4.2326 N.am      3 UNK        -0.4232 
     30 C          24.0887   -1.5426   -3.3910 C.2       2 UNK         0.4993 
     31 O          24.1249   -0.3603   -3.7260 O.2       2 UNK        -0.5286 
     32 CA         24.3955   -1.9060   -1.9306 C.3       2 UNK         0.0209 
     33 CB         23.1067   -2.2895   -1.1846 C.3       2 UNK        -0.1931 
     34 N          25.4111   -2.9483   -1.7297 N.am      2 UNK        -0.4546 
     35 C          26.5998   -3.0281   -2.3456 C.2       1 UNK         0.5154 
     36 O          26.9226   -2.3455   -3.3220 O.2       1 UNK        -0.5181 
     37 C          26.7564    2.1672   -4.8062 C.2       5 UNK         0.5014 
     38 O          27.2294    3.2613   -5.1164 O.2       5 UNK        -0.5248 
     39 N          25.4423    1.8909   -4.8524 N.am      6 UNK        -0.4434 
     40 CA         24.4134    2.8404   -5.2935 C.3       6 UNK         0.0363 
     41 CB         23.0151    2.2958   -4.9630 C.3       6 UNK        -0.1936 
     42 C          24.5092    3.1855   -6.7884 C.2       6 UNK         0.5081 
     43 O          24.2879    4.3402   -7.1540 O.2       6 UNK        -0.5248 
     44 N          24.8559    2.1956   -7.6239 N.am      7 UNK        -0.4718 
     45 CA         25.0987    2.3759   -9.0594 C.3       7 UNK         0.0273 
     46 CB         25.0983    1.0012   -9.7481 C.3       7 UNK        -0.1935 
     47 C          26.4090    3.1202   -9.3758 C.2       7 UNK         0.5018 
     48 O          26.5670    3.5841  -10.5058 O.2       7 UNK        -0.5186 
     49 N          27.3220    3.1946   -8.3939 N.am      8 UNK        -0.4240 
     50 CA         28.6938    3.7057   -8.4834 C.3       8 UNK         0.0235 
     51 CB         28.7072    5.2261   -8.7491 C.3       8 UNK        -0.2000 
     52 C          29.5315    2.8995   -9.4942 C.2       8 UNK         0.4941 
     53 O          30.2380    3.4768  -10.3223 O.2       8 UNK        -0.5273 
     54 N          29.4222    1.5658   -9.4098 N.am      9 UNK        -0.4262 
     55 CA         30.0438    0.6082  -10.3299 C.3       9 UNK         0.0264 
     56 CB         29.2987   -0.7328  -10.2171 C.3       9 UNK        -0.1955 
     57 C          31.5555    0.4071  -10.1107 C.2       9 UNK         0.5031 
     58 O          32.1796   -0.3086  -10.8966 O.2       9 UNK        -0.5390 
     59 N          32.1100    0.9877   -9.0333 N.am      10 UNK        -0.4204 
     60 CA         33.5176    0.9221   -8.6065 C.3       10 UNK         0.0237 
     61 CB         34.4154    1.7039   -9.5892 C.3       10 UNK        -0.1985 
     62 C          34.0226   -0.5155   -8.3589 C.2       10 UNK         0.4970 
     63 O          35.2156   -0.7836   -8.5121 O.2       10 UNK        -0.4914 
     64 N          33.0924   -1.4078   -7.9934 N.am      11 UNK        -0.4285 
     65 CA         33.2882   -2.8525   -7.7977 C.3       11 UNK         0.1007 
     66 C          33.6331   -3.6383   -9.1003 C.2       11 UNK         0.5703 
     67 N          33.4081   -3.0859  -10.2884 N.am      11 UNK        -0.7361 
     68 O          34.0793   -4.7817   -9.0381 O.2       11 UNK        -0.4986 
     69 C69        34.2339   -3.1970   -6.6064 C.3       12 UNK        -0.0947 
     70 S70        33.9197   -2.2425   -5.0794 S.3       12 UNK        -0.2240 
     71 C71        32.2350   -2.7736   -4.6531 C.3       12 UNK         0.0194 
     72 H72        30.1688   -6.3472   -4.2736 H         1 UNK         0.0906 
     73 H73        29.0971   -5.9153   -5.6098 H         1 UNK         0.0906 
     74 H74        30.0886   -4.6767   -4.8513 H         1 UNK         0.0906 
     75 H75        29.5045   -3.9030   -2.6735 H         1 UNK         0.3140 
     76 H76        27.1156   -4.8692   -1.3591 H         1 UNK         0.1085 
     77 H77        27.5486   -3.2211    0.3360 H         1 UNK         0.0836 
     78 H78        28.5107   -2.2316   -0.7097 H         1 UNK         0.0836 
     79 H79        31.9403   -3.1176    0.5547 H         1 UNK         0.0731 
     80 H80        30.6598   -2.0320    1.0335 H         1 UNK         0.0731 
     81 H81        31.9032   -3.7157   -2.1104 H         1 UNK         0.1312 
     82 H82        31.4191   -0.1880   -4.4976 H         1 UNK         0.1406 
     83 H83        30.4115   -0.1066   -0.3309 H         1 UNK         0.1631 
     84 H84        30.6555    1.8403   -3.5762 H         1 UNK         0.0717 
     85 H85        31.2569    2.0669   -1.9605 H         1 UNK         0.0717 
     86 H86        28.1653   -0.2096   -2.6657 H         1 UNK         0.0934 
     87 H87        26.7817    0.8058   -2.4313 H         1 UNK         0.0934 
     88 H88        28.7081    1.3146   -4.7489 H         1 UNK         0.0739 
     89 H89        27.0820   -0.9897   -4.5317 H         1 UNK         0.3093 
     90 H90        26.9280   -1.7140   -8.0097 H         1 UNK         0.0818 
     91 H91        29.1769   -2.4827   -7.2178 H         1 UNK         0.0819 
     92 H92        28.0064   -3.7889   -7.1302 H         1 UNK         0.0819 
     93 H93        28.4909   -2.9314   -5.6659 H         1 UNK         0.0819 
     94 H94        26.0089   -3.0486   -5.6292 H         1 UNK         0.3041 
     95 H95        22.6786   -1.7149   -5.7312 H         1 UNK         0.0784 
     96 H96        22.8945   -3.6361   -7.3249 H         1 UNK         0.0793 
     97 H97        23.9256   -4.4818   -6.1789 H         1 UNK         0.0793 
     98 H98        22.2423   -4.1439   -5.7767 H         1 UNK         0.0793 
     99 H99        23.8608   -3.4974   -3.8703 H         1 UNK         0.3024 
    100 H100       24.7897   -0.9996   -1.4660 H         1 UNK         0.1171 
    101 H101       23.2818   -2.3872   -0.1130 H         1 UNK         0.0786 
    102 H102       22.3371   -1.5270   -1.3147 H         1 UNK         0.0786 
    103 H103       22.6950   -3.2331   -1.5446 H         1 UNK         0.0786 
    104 H104       25.2444   -3.5677   -0.9493 H         1 UNK         0.2977 
    105 H105       25.1071    0.9754   -4.5547 H         1 UNK         0.3127 
    106 H106       24.5555    3.7668   -4.7327 H         1 UNK         0.0770 
    107 H107       22.8206    1.3513   -5.4734 H         1 UNK         0.0814 
    108 H108       22.2387    2.9986   -5.2681 H         1 UNK         0.0814 
    109 H109       22.8976    2.1285   -3.8923 H         1 UNK         0.0814 
    110 H110       24.9523    1.2518   -7.2614 H         1 UNK         0.2983 
    111 H111       24.2804    2.9681   -9.4747 H         1 UNK         0.0947 
    112 H112       25.2577    1.0990  -10.8228 H         1 UNK         0.0806 
    113 H113       24.1468    0.4880   -9.6087 H         1 UNK         0.0806 
    114 H114       25.8876    0.3571   -9.3581 H         1 UNK         0.0806 
    115 H115       27.0831    2.7564   -7.5133 H         1 UNK         0.3000 
    116 H116       29.1452    3.5373   -7.5044 H         1 UNK         0.0850 
    117 H117       29.7222    5.6214   -8.6960 H         1 UNK         0.0810 
    118 H118       28.1114    5.7615   -8.0098 H         1 UNK         0.0810 
    119 H119       28.3158    5.4709   -9.7370 H         1 UNK         0.0810 
    120 H120       28.8344    1.1746   -8.6734 H         1 UNK         0.3040 
    121 H121       29.9166    0.9828  -11.3478 H         1 UNK         0.0766 
    122 H122       28.2350   -0.6147  -10.4247 H         1 UNK         0.0812 
    123 H123       29.3995   -1.1649   -9.2220 H         1 UNK         0.0812 
    124 H124       29.6875   -1.4610  -10.9303 H         1 UNK         0.0812 
    125 H125       31.4984    1.5386   -8.4478 H         1 UNK         0.3205 
    126 H126       33.5685    1.4264   -7.6403 H         1 UNK         0.0754 
    127 H127       35.4362    1.7825   -9.2128 H         1 UNK         0.0769 
    128 H128       34.0485    2.7194   -9.7389 H         1 UNK         0.0769 
    129 H129       34.4644    1.2183  -10.5645 H         1 UNK         0.0769 
    130 H130       32.1419   -1.0835   -7.9079 H         1 UNK         0.2981 
    131 H131       32.3007   -3.2318   -7.5376 H         1 UNK         0.0541 
    132 H132       33.0367   -2.1463  -10.3698 H         1 UNK         0.3459 
    133 H133       33.6251   -3.6105  -11.1206 H         1 UNK         0.3459 
    134 H134       34.1624   -4.2580   -6.3609 H         1 UNK         0.0612 
    135 H135       35.2728   -3.0236   -6.8912 H         1 UNK         0.0612 
    136 H136       31.5592   -2.5898   -5.4881 H         1 UNK         0.0624 
    137 H137       32.2432   -3.8501   -4.4787 H         1 UNK         0.0624 
@<TRIPOS>BOND
     1    1    2 1    
     2    1   72 1    
     3    1   73 1    
     4    1   74 1    
     5    2    3 2    
     6    2    4 am   BACKBONE|DICT|INTERRES
     7    4    5 1    
     8    4   75 1    
     9    5    6 1    
    10    5   35 1    
    11    5   76 1    
    12    6    7 1    
    13    6   77 1    
    14    6   78 1    
    15    7    8 1    
    16    8    9 1    
    17    8   79 1    
    18    8   80 1    
    19    9   10 ar   
    20    9   14 ar   
    21   10   11 ar   
    22   10   81 1    
    23   11   12 ar   
    24   11   71 1    
    25   12   13 ar   
    26   12   82 1    
    27   13   14 ar   
    28   13   15 1    
    29   14   83 1    
    30   15   16 1    
    31   15   84 1    
    32   15   85 1    
    33   16   17 1    
    34   17   18 1    
    35   17   86 1    
    36   17   87 1    
    37   18   19 1    
    38   18   37 1    
    39   18   88 1    
    40   19   20 am   BACKBONE|DICT|INTERRES
    41   19   89 1    
    42   20   21 2    
    43   20   22 1    
    44   22   23 1    
    45   22   24 1    
    46   22   90 1    
    47   23   91 1    
    48   23   92 1    
    49   23   93 1    
    50   24   25 am   BACKBONE|DICT|INTERRES
    51   24   94 1    
    52   25   26 2    
    53   25   27 1    
    54   27   28 1    
    55   27   29 1    
    56   27   95 1    
    57   28   96 1    
    58   28   97 1    
    59   28   98 1    
    60   29   30 am   BACKBONE|DICT|INTERRES
    61   29   99 1    
    62   30   31 2    
    63   30   32 1    
    64   32   33 1    
    65   32   34 1    
    66   32  100 1    
    67   33  101 1    
    68   33  102 1    
    69   33  103 1    
    70   34   35 am   BACKBONE|DICT|INTERRES
    71   34  104 1    
    72   35   36 2    
    73   37   38 2    
    74   37   39 am   BACKBONE|DICT|INTERRES
    75   39   40 1    
    76   39  105 1    
    77   40   41 1    
    78   40   42 1    
    79   40  106 1    
    80   41  107 1    
    81   41  108 1    
    82   41  109 1    
    83   42   43 2    
    84   42   44 am   BACKBONE|DICT|INTERRES
    85   44   45 1    
    86   44  110 1    
    87   45   46 1    
    88   45   47 1    
    89   45  111 1    
    90   46  112 1    
    91   46  113 1    
    92   46  114 1    
    93   47   48 2    
    94   47   49 am   BACKBONE|DICT|INTERRES
    95   49   50 1    
    96   49  115 1    
    97   50   51 1    
    98   50   52 1    
    99   50  116 1    
   100   51  117 1    
   101   51  118 1    
   102   51  119 1    
   103   52   53 2    
   104   52   54 am   BACKBONE|DICT|INTERRES
   105   54   55 1    
   106   54  120 1    
   107   55   56 1    
   108   55   57 1    
   109   55  121 1    
   110   56  122 1    
   111   56  123 1    
   112   56  124 1    
   113   57   58 2    
   114   57   59 am   BACKBONE|DICT|INTERRES
   115   59   60 1    
   116   59  125 1    
   117   60   61 1    
   118   60   62 1    
   119   60  126 1    
   120   61  127 1    
   121   61  128 1    
   122   61  129 1    
   123   62   63 2    
   124   62   64 am   BACKBONE|DICT|INTERRES
   125   64   65 1    
   126   64  130 1    
   127   65   66 1    
   128   65   69 1    
   129   65  131 1    
   130   66   67 am   BACKBONE|DICT|INTERRES
   131   66   68 2    
   132   67  132 1    
   133   67  133 1    
   134   69   70 1    
   135   69  134 1    
   136   69  135 1    
   137   70   71 1    
   138   71  136 1    
   139   71  137 1    
@<TRIPOS>SUBSTRUCTURE
     1 UNK         1 GROUP             0       ****    0 ROOT    
