@<TRIPOS>MOLECULE
3R137
137   139    1
SMALL
USER_CHARGES


@<TRIPOS>ATOM
      1 CA         24.1176   -4.0145   -2.2083 C.3       0 UNK        -0.2020 
      2 C          25.4997   -3.3800   -2.2286 C.2       0 UNK         0.4855 
      3 O          25.7936   -2.5819   -3.1250 O.2       0 UNK        -0.5197 
      4 N          26.3325   -3.7219   -1.2362 N.am      1 UNK        -0.4892 
      5 CA         27.7036   -3.2434   -1.0291 C.3       1 UNK         0.0835 
      6 C6         28.6861   -3.8052   -2.0920 C.3       12 UNK        -0.0855 
      7 S7         30.3903   -3.8895   -1.4487 S.3       12 UNK        -0.2931 
      8 C8         31.0467   -5.3164   -2.3665 C.3       12 UNK         0.0378 
      9 C9         31.2820   -4.9709   -3.8286 C.ar      12 UNK        -0.0802 
     10 C10        32.5012   -4.4151   -4.2259 C.ar      12 UNK        -0.0944 
     11 C11        32.7305   -4.0937   -5.5662 C.ar      12 UNK        -0.0787 
     12 C12        31.7317   -4.3372   -6.5125 C.ar      12 UNK        -0.0862 
     13 C13        30.5045   -4.8846   -6.1261 C.ar      12 UNK        -0.0733 
     14 C14        30.2869   -5.2054   -4.7831 C.ar      12 UNK        -0.0832 
     15 C15        29.4228   -5.1395   -7.1650 C.3       12 UNK         0.0240 
     16 S16        28.8108   -3.5922   -7.9009 S.3       12 UNK        -0.2522 
     17 C17        27.9057   -2.8347   -6.5078 C.3       12 UNK        -0.0967 
     18 CA         26.8375   -1.8288   -7.0135 C.3       5 UNK         0.0660 
     19 N          25.6599   -1.7795   -6.1375 N.am      5 UNK        -0.4015 
     20 C          24.4629   -1.3059   -6.5220 C.2       4 UNK         0.4946 
     21 O          24.2299   -0.8636   -7.6475 O.2       4 UNK        -0.5353 
     22 CA         23.3599   -1.2746   -5.4589 C.3       4 UNK         0.0277 
     23 CB         22.7482   -2.6722   -5.2728 C.3       4 UNK        -0.1981 
     24 N          23.8838   -0.7782   -4.1846 N.am      4 UNK        -0.4209 
     25 C          23.9148    0.5155   -3.8387 C.2       3 UNK         0.4942 
     26 O          23.4833    1.4245   -4.5470 O.2       3 UNK        -0.5208 
     27 CA         24.5495    0.8573   -2.4873 C.3       3 UNK         0.0250 
     28 CB         23.7561    0.2506   -1.3157 C.3       3 UNK        -0.1990 
     29 N          25.9427    0.4102   -2.4303 N.am      3 UNK        -0.4232 
     30 C          26.9606    1.1513   -1.9665 C.2       2 UNK         0.4993 
     31 O          26.8353    2.3197   -1.5952 O.2       2 UNK        -0.5286 
     32 CA         28.3557    0.4886   -1.9116 C.3       2 UNK         0.0209 
     33 CB         29.2582    1.0906   -0.8141 C.3       2 UNK        -0.1931 
     34 N          28.3248   -0.9763   -1.7998 N.am      2 UNK        -0.4546 
     35 C          27.7211   -1.7090   -0.8501 C.2       1 UNK         0.5154 
     36 O          27.1430   -1.2260    0.1258 O.2       1 UNK        -0.5181 
     37 C          27.4313   -0.4288   -7.2984 C.2       5 UNK         0.5014 
     38 O          28.1996   -0.2847   -8.2483 O.2       5 UNK        -0.5248 
     39 N          27.0318    0.5883   -6.5152 N.am      6 UNK        -0.4434 
     40 CA         27.4050    2.0022   -6.6642 C.3       6 UNK         0.0363 
     41 CB         26.7117    2.8244   -5.5669 C.3       6 UNK        -0.1936 
     42 C          27.0999    2.6081   -8.0496 C.2       6 UNK         0.5081 
     43 O          27.7472    3.5782   -8.4438 O.2       6 UNK        -0.5248 
     44 N          26.1240    2.0317   -8.7645 N.am      7 UNK        -0.4718 
     45 CA         25.7844    2.3872  -10.1423 C.3       7 UNK         0.0273 
     46 CB         24.3501    1.9151  -10.4320 C.3       7 UNK        -0.1935 
     47 C          26.7599    1.8040  -11.1837 C.2       7 UNK         0.5018 
     48 O          26.7946    2.3109  -12.3060 O.2       7 UNK        -0.5186 
     49 N          27.5056    0.7497  -10.8227 N.am      8 UNK        -0.4240 
     50 CA         28.4185    0.0295  -11.7120 C.3       8 UNK         0.0235 
     51 CB         28.2295   -1.4843  -11.5146 C.3       8 UNK        -0.2000 
     52 C          29.8846    0.4183  -11.4748 C.2       8 UNK         0.4941 
     53 O          30.6356    0.5252  -12.4457 O.2       8 UNK        -0.5273 
     54 N          30.2756    0.6182  -10.2108 N.am      9 UNK        -0.4262 
     55 CA         31.6345    0.9660   -9.7978 C.3       9 UNK         0.0264 
     56 CB         32.4577   -0.3230   -9.6168 C.3       9 UNK        -0.1955 
     57 C          31.5739    1.7578   -8.4893 C.2       9 UNK         0.5031 
     58 O          30.5705    1.6811   -7.7826 O.2       9 UNK        -0.5390 
     59 N          32.6603    2.4664   -8.1506 N.am      10 UNK        -0.4204 
     60 CA         32.7847    3.2665   -6.9211 C.3       10 UNK         0.0237 
     61 CB         34.1321    4.0070   -6.9294 C.3       10 UNK        -0.1985 
     62 C          32.6209    2.4596   -5.6164 C.2       10 UNK         0.4970 
     63 O          32.1660    3.0125   -4.6147 O.2       10 UNK        -0.4914 
     64 N          32.9753    1.1711   -5.6658 N.am      11 UNK        -0.4285 
     65 CA         32.7278    0.1674   -4.6226 C.3       11 UNK         0.1007 
     66 C          31.2570   -0.3443   -4.5455 C.2       11 UNK         0.5703 
     67 N          30.3598    0.0358   -5.4463 N.am      11 UNK        -0.7361 
     68 O          30.9054   -1.0729   -3.6229 O.2       11 UNK        -0.4986 
     69 C69        33.7655   -0.9846   -4.7062 C.3       12 UNK        -0.0947 
     70 S70        33.9160   -1.7213   -6.3738 S.3       12 UNK        -0.2240 
     71 C71        34.0594   -3.4949   -5.9987 C.3       12 UNK         0.0194 
     72 H72        24.0130   -4.7100   -3.0401 H         1 UNK         0.0906 
     73 H73        23.9368   -4.5656   -1.2856 H         1 UNK         0.0906 
     74 H74        23.3454   -3.2514   -2.2964 H         1 UNK         0.0906 
     75 H75        25.9961   -4.3505   -0.5193 H         1 UNK         0.3140 
     76 H76        27.9969   -3.6506   -0.0595 H         1 UNK         0.1085 
     77 H77        28.6583   -3.2562   -3.0347 H         1 UNK         0.0836 
     78 H78        28.3824   -4.8219   -2.3450 H         1 UNK         0.0836 
     79 H79        31.9856   -5.6275   -1.9060 H         1 UNK         0.0731 
     80 H80        30.3694   -6.1667   -2.2734 H         1 UNK         0.0731 
     81 H81        33.2691   -4.2276   -3.4879 H         1 UNK         0.1312 
     82 H82        31.9036   -4.0860   -7.5504 H         1 UNK         0.1406 
     83 H83        29.3423   -5.6351   -4.4795 H         1 UNK         0.1631 
     84 H84        28.5862   -5.6957   -6.7396 H         1 UNK         0.0717 
     85 H85        29.8346   -5.7653   -7.9579 H         1 UNK         0.0717 
     86 H86        27.4267   -3.6422   -5.9514 H         1 UNK         0.0934 
     87 H87        28.6146   -2.3757   -5.8161 H         1 UNK         0.0934 
     88 H88        26.4717   -2.1936   -7.9766 H         1 UNK         0.0739 
     89 H89        25.7736   -2.1297   -5.1924 H         1 UNK         0.3093 
     90 H90        22.5682   -0.6090   -5.8109 H         1 UNK         0.0818 
     91 H91        21.9788   -2.6706   -4.5006 H         1 UNK         0.0819 
     92 H92        22.2775   -3.0129   -6.1961 H         1 UNK         0.0819 
     93 H93        23.4990   -3.4144   -5.0027 H         1 UNK         0.0819 
     94 H94        24.3268   -1.4611   -3.5792 H         1 UNK         0.3041 
     95 H95        24.5018    1.9444   -2.3920 H         1 UNK         0.0784 
     96 H96        22.7045    0.5366   -1.3636 H         1 UNK         0.0793 
     97 H97        23.8016   -0.8384   -1.3084 H         1 UNK         0.0793 
     98 H98        24.1439    0.6018   -0.3592 H         1 UNK         0.0793 
     99 H99        26.1294   -0.5485   -2.7025 H         1 UNK         0.3024 
    100 H100       28.8212    0.7116   -2.8727 H         1 UNK         0.1171 
    101 H101       29.4068    2.1600   -0.9689 H         1 UNK         0.0786 
    102 H102       30.2445    0.6262   -0.8172 H         1 UNK         0.0786 
    103 H103       28.8278    0.9610    0.1793 H         1 UNK         0.0786 
    104 H104       28.8350   -1.4698   -2.5221 H         1 UNK         0.2977 
    105 H105       26.3662    0.3822   -5.7867 H         1 UNK         0.3127 
    106 H106       28.4793    2.0769   -6.5021 H         1 UNK         0.0770 
    107 H107       25.6255    2.7669   -5.6436 H         1 UNK         0.0814 
    108 H108       27.0008    2.4873   -4.5729 H         1 UNK         0.0814 
    109 H109       26.9864    3.8778   -5.6376 H         1 UNK         0.0814 
    110 H110       25.6284    1.2481   -8.3605 H         1 UNK         0.2983 
    111 H111       25.8132    3.4747  -10.2416 H         1 UNK         0.0947 
    112 H112       24.0483    2.1788  -11.4467 H         1 UNK         0.0806 
    113 H113       23.6349    2.3786   -9.7522 H         1 UNK         0.0806 
    114 H114       24.2537    0.8328  -10.3330 H         1 UNK         0.0806 
    115 H115       27.4852    0.4354   -9.8564 H         1 UNK         0.3000 
    116 H116       28.1817    0.2583  -12.7534 H         1 UNK         0.0850 
    117 H117       28.8794   -2.0488  -12.1845 H         1 UNK         0.0810 
    118 H118       27.2039   -1.7866  -11.7265 H         1 UNK         0.0810 
    119 H119       28.4657   -1.7940  -10.4959 H         1 UNK         0.0810 
    120 H120       29.6091    0.5251   -9.4459 H         1 UNK         0.3040 
    121 H121       32.0983    1.5994  -10.5570 H         1 UNK         0.0766 
    122 H122       33.4781   -0.1038   -9.3007 H         1 UNK         0.0812 
    123 H123       32.5238   -0.8859  -10.5479 H         1 UNK         0.0812 
    124 H124       32.0145   -0.9769   -8.8638 H         1 UNK         0.0812 
    125 H125       33.4522    2.4736   -8.7779 H         1 UNK         0.3205 
    126 H126       31.9857    4.0109   -6.9375 H         1 UNK         0.0754 
    127 H127       34.2410    4.6295   -6.0399 H         1 UNK         0.0769 
    128 H128       34.2191    4.6651   -7.7942 H         1 UNK         0.0769 
    129 H129       34.9741    3.3137   -6.9467 H         1 UNK         0.0769 
    130 H130       33.3325    0.8026   -6.5342 H         1 UNK         0.2981 
    131 H131       32.8944    0.6606   -3.6632 H         1 UNK         0.0541 
    132 H132       30.6016    0.6440   -6.2244 H         1 UNK         0.3459 
    133 H133       29.4208   -0.3053   -5.3661 H         1 UNK         0.3459 
    134 H134       33.5433   -1.7568   -3.9688 H         1 UNK         0.0612 
    135 H135       34.7498   -0.6006   -4.4348 H         1 UNK         0.0612 
    136 H136       34.8247   -3.6438   -5.2354 H         1 UNK         0.0624 
    137 H137       34.4126   -4.0133   -6.8912 H         1 UNK         0.0624 
@<TRIPOS>BOND
     1    1    2 1    
     2    1   72 1    
     3    1   73 1    
     4    1   74 1    
     5    2    3 2    
     6    2    4 am   BACKBONE|DICT|INTERRES
     7    4    5 1    
     8    4   75 1    
     9    5    6 1    
    10    5   35 1    
    11    5   76 1    
    12    6    7 1    
    13    6   77 1    
    14    6   78 1    
    15    7    8 1    
    16    8    9 1    
    17    8   79 1    
    18    8   80 1    
    19    9   10 ar   
    20    9   14 ar   
    21   10   11 ar   
    22   10   81 1    
    23   11   12 ar   
    24   11   71 1    
    25   12   13 ar   
    26   12   82 1    
    27   13   14 ar   
    28   13   15 1    
    29   14   83 1    
    30   15   16 1    
    31   15   84 1    
    32   15   85 1    
    33   16   17 1    
    34   17   18 1    
    35   17   86 1    
    36   17   87 1    
    37   18   19 1    
    38   18   37 1    
    39   18   88 1    
    40   19   20 am   BACKBONE|DICT|INTERRES
    41   19   89 1    
    42   20   21 2    
    43   20   22 1    
    44   22   23 1    
    45   22   24 1    
    46   22   90 1    
    47   23   91 1    
    48   23   92 1    
    49   23   93 1    
    50   24   25 am   BACKBONE|DICT|INTERRES
    51   24   94 1    
    52   25   26 2    
    53   25   27 1    
    54   27   28 1    
    55   27   29 1    
    56   27   95 1    
    57   28   96 1    
    58   28   97 1    
    59   28   98 1    
    60   29   30 am   BACKBONE|DICT|INTERRES
    61   29   99 1    
    62   30   31 2    
    63   30   32 1    
    64   32   33 1    
    65   32   34 1    
    66   32  100 1    
    67   33  101 1    
    68   33  102 1    
    69   33  103 1    
    70   34   35 am   BACKBONE|DICT|INTERRES
    71   34  104 1    
    72   35   36 2    
    73   37   38 2    
    74   37   39 am   BACKBONE|DICT|INTERRES
    75   39   40 1    
    76   39  105 1    
    77   40   41 1    
    78   40   42 1    
    79   40  106 1    
    80   41  107 1    
    81   41  108 1    
    82   41  109 1    
    83   42   43 2    
    84   42   44 am   BACKBONE|DICT|INTERRES
    85   44   45 1    
    86   44  110 1    
    87   45   46 1    
    88   45   47 1    
    89   45  111 1    
    90   46  112 1    
    91   46  113 1    
    92   46  114 1    
    93   47   48 2    
    94   47   49 am   BACKBONE|DICT|INTERRES
    95   49   50 1    
    96   49  115 1    
    97   50   51 1    
    98   50   52 1    
    99   50  116 1    
   100   51  117 1    
   101   51  118 1    
   102   51  119 1    
   103   52   53 2    
   104   52   54 am   BACKBONE|DICT|INTERRES
   105   54   55 1    
   106   54  120 1    
   107   55   56 1    
   108   55   57 1    
   109   55  121 1    
   110   56  122 1    
   111   56  123 1    
   112   56  124 1    
   113   57   58 2    
   114   57   59 am   BACKBONE|DICT|INTERRES
   115   59   60 1    
   116   59  125 1    
   117   60   61 1    
   118   60   62 1    
   119   60  126 1    
   120   61  127 1    
   121   61  128 1    
   122   61  129 1    
   123   62   63 2    
   124   62   64 am   BACKBONE|DICT|INTERRES
   125   64   65 1    
   126   64  130 1    
   127   65   66 1    
   128   65   69 1    
   129   65  131 1    
   130   66   67 am   BACKBONE|DICT|INTERRES
   131   66   68 2    
   132   67  132 1    
   133   67  133 1    
   134   69   70 1    
   135   69  134 1    
   136   69  135 1    
   137   70   71 1    
   138   71  136 1    
   139   71  137 1    
@<TRIPOS>SUBSTRUCTURE
     1 UNK         1 GROUP             0       ****    0 ROOT    
