@<TRIPOS>MOLECULE
3R137
137   139    1
SMALL
USER_CHARGES


@<TRIPOS>ATOM
      1 CA         24.0003   -5.6443   -1.3405 C.3       0 UNK        -0.2020 
      2 C          24.6506   -4.3810   -0.7986 C.2       0 UNK         0.4855 
      3 O          23.9509   -3.4261   -0.4593 O.2       0 UNK        -0.5197 
      4 N          25.9869   -4.3734   -0.7237 N.am      1 UNK        -0.4892 
      5 CA         26.8480   -3.2749   -0.2691 C.3       1 UNK         0.0835 
      6 C6         28.3499   -3.6832   -0.2433 C.3       12 UNK        -0.0855 
      7 S7         28.8783   -4.7881   -1.6069 S.3       12 UNK        -0.2931 
      8 C8         30.5813   -4.2357   -1.9247 C.3       12 UNK         0.0378 
      9 C9         30.6336   -3.0888   -2.9227 C.ar      12 UNK        -0.0802 
     10 C10        30.5783   -3.3548   -4.2950 C.ar      12 UNK        -0.0944 
     11 C11        30.6739   -2.3142   -5.2223 C.ar      12 UNK        -0.0787 
     12 C12        30.8471   -1.0060   -4.7671 C.ar      12 UNK        -0.0862 
     13 C13        30.8677   -0.7176   -3.3990 C.ar      12 UNK        -0.0733 
     14 C14        30.7658   -1.7684   -2.4812 C.ar      12 UNK        -0.0832 
     15 C15        31.0125    0.7184   -2.8984 C.3       12 UNK         0.0240 
     16 S16        29.9506    1.9270   -3.7670 S.3       12 UNK        -0.2522 
     17 C17        28.2949    1.1687   -3.6288 C.3       12 UNK        -0.0967 
     18 CA         27.8215    0.5799   -4.9860 C.3       5 UNK         0.0660 
     19 N          27.1728   -0.7283   -4.8243 N.am      5 UNK        -0.4015 
     20 C          26.8829   -1.5854   -5.8152 C.2       4 UNK         0.4946 
     21 O          27.1355   -1.3700   -6.9994 O.2       4 UNK        -0.5353 
     22 CA         26.1108   -2.8566   -5.4308 C.3       4 UNK         0.0277 
     23 CB         27.0596   -3.9447   -4.9058 C.3       4 UNK        -0.1981 
     24 N          25.0834   -2.5539   -4.4310 N.am      4 UNK        -0.4209 
     25 C          23.8834   -2.0316   -4.7288 C.2       3 UNK         0.4942 
     26 O          23.4720   -1.8876   -5.8794 O.2       3 UNK        -0.5208 
     27 CA         22.9988   -1.5564   -3.5616 C.3       3 UNK         0.0250 
     28 CB         21.9842   -2.6403   -3.1666 C.3       3 UNK        -0.1990 
     29 N          23.7731   -1.1440   -2.3874 N.am      3 UNK        -0.4232 
     30 C          24.5100   -0.0228   -2.3365 C.2       2 UNK         0.4993 
     31 O          24.5561    0.8027   -3.2477 O.2       2 UNK        -0.5286 
     32 CA         25.3829    0.1995   -1.0874 C.3       2 UNK         0.0209 
     33 CB         24.6284    1.0447   -0.0492 C.3       2 UNK        -0.1931 
     34 N          25.8481   -1.0417   -0.4597 N.am      2 UNK        -0.4546 
     35 C          26.5908   -1.9791   -1.0657 C.2       1 UNK         0.5154 
     36 O          26.9973   -1.8710   -2.2230 O.2       1 UNK        -0.5181 
     37 C          27.0122    1.5979   -5.8228 C.2       5 UNK         0.5014 
     38 O          27.5746    2.6023   -6.2603 O.2       5 UNK        -0.5248 
     39 N          25.7342    1.3053   -6.1057 N.am      6 UNK        -0.4434 
     40 CA         24.9210    1.9840   -7.1188 C.3       6 UNK         0.0363 
     41 CB         23.4851    1.4414   -7.0606 C.3       6 UNK        -0.1936 
     42 C          25.4923    1.8540   -8.5477 C.2       6 UNK         0.5081 
     43 O          25.2166    2.7161   -9.3816 O.2       6 UNK        -0.5248 
     44 N          26.3099    0.8188   -8.7975 N.am      7 UNK        -0.4718 
     45 CA         27.0925    0.6300  -10.0228 C.3       7 UNK         0.0273 
     46 CB         27.2078   -0.8782  -10.3126 C.3       7 UNK        -0.1935 
     47 C          28.4851    1.2954   -9.9500 C.2       7 UNK         0.5018 
     48 O          29.3403    0.9541  -10.7682 O.2       7 UNK        -0.5186 
     49 N          28.6789    2.2181   -8.9927 N.am      8 UNK        -0.4240 
     50 CA         29.8996    2.9497   -8.6281 C.3       8 UNK         0.0235 
     51 CB         30.5733    3.6064   -9.8529 C.3       8 UNK        -0.2000 
     52 C          30.8880    2.0889   -7.8237 C.2       8 UNK         0.4941 
     53 O          30.7556    0.8666   -7.7701 O.2       8 UNK        -0.5273 
     54 N          31.8755    2.7567   -7.2068 N.am      9 UNK        -0.4262 
     55 CA         32.9624    2.1260   -6.4460 C.3       9 UNK         0.0264 
     56 CB         33.7385    3.1992   -5.6668 C.3       9 UNK        -0.1955 
     57 C          33.9104    1.2983   -7.3322 C.2       9 UNK         0.5031 
     58 O          34.4120    0.2648   -6.8893 O.2       9 UNK        -0.5390 
     59 N          34.1046    1.7467   -8.5792 N.am      10 UNK        -0.4204 
     60 CA         34.6877    0.9656   -9.6667 C.3       10 UNK         0.0237 
     61 CB         35.4668    1.9060  -10.6055 C.3       10 UNK        -0.1985 
     62 C          33.5251    0.2508  -10.3709 C.2       10 UNK         0.4970 
     63 O          33.0071    0.7699  -11.3602 O.2       10 UNK        -0.4914 
     64 N          33.0971   -0.8673   -9.7713 N.am      11 UNK        -0.4285 
     65 CA         31.8589   -1.6166  -10.0373 C.3       11 UNK         0.1007 
     66 C          31.5867   -1.8892  -11.5426 C.2       11 UNK         0.5703 
     67 N          30.5706   -1.2633  -12.1198 N.am      11 UNK        -0.7361 
     68 O          32.2758   -2.6856  -12.1776 O.2       11 UNK        -0.4986 
     69 C69        31.8152   -2.9410   -9.2226 C.3       12 UNK        -0.0947 
     70 S70        32.2280   -2.7405   -7.4550 S.3       12 UNK        -0.2240 
     71 C71        30.5776   -2.5902   -6.7149 C.3       12 UNK         0.0194 
     72 H72        23.0581   -5.8355   -0.8274 H         1 UNK         0.0906 
     73 H73        23.7956   -5.5381   -2.4052 H         1 UNK         0.0906 
     74 H74        24.6405   -6.5153   -1.2012 H         1 UNK         0.0906 
     75 H75        26.5028   -5.1747   -1.0624 H         1 UNK         0.3140 
     76 H76        26.5630   -3.0712    0.7654 H         1 UNK         0.1085 
     77 H77        28.5516   -4.2201    0.6849 H         1 UNK         0.0836 
     78 H78        28.9927   -2.8019   -0.2067 H         1 UNK         0.0836 
     79 H79        31.1505   -5.0789   -2.3189 H         1 UNK         0.0731 
     80 H80        31.0660   -3.9607   -0.9866 H         1 UNK         0.0731 
     81 H81        30.4607   -4.3731   -4.6396 H         1 UNK         0.1312 
     82 H82        30.9371   -0.2064   -5.4866 H         1 UNK         0.1406 
     83 H83        30.8001   -1.5607   -1.4207 H         1 UNK         0.1631 
     84 H84        32.0532    1.0245   -3.0113 H         1 UNK         0.0717 
     85 H85        30.7879    0.7755   -1.8322 H         1 UNK         0.0717 
     86 H86        28.3422    0.3939   -2.8625 H         1 UNK         0.0934 
     87 H87        27.5928    1.9110   -3.2439 H         1 UNK         0.0934 
     88 H88        28.6977    0.3753   -5.6018 H         1 UNK         0.0739 
     89 H89        26.9992   -1.0320   -3.8687 H         1 UNK         0.3093 
     90 H90        25.6280   -3.2425   -6.3315 H         1 UNK         0.0818 
     91 H91        27.7807   -4.2309   -5.6720 H         1 UNK         0.0819 
     92 H92        27.6286   -3.6059   -4.0409 H         1 UNK         0.0819 
     93 H93        26.5161   -4.8443   -4.6177 H         1 UNK         0.0819 
     94 H94        25.3761   -2.5916   -3.4629 H         1 UNK         0.3041 
     95 H95        22.4374   -0.6880   -3.9138 H         1 UNK         0.0784 
     96 H96        21.3490   -2.9045   -4.0133 H         1 UNK         0.0793 
     97 H97        22.4744   -3.5534   -2.8328 H         1 UNK         0.0793 
     98 H98        21.3294   -2.2987   -2.3647 H         1 UNK         0.0793 
     99 H99        23.7979   -1.7881   -1.6009 H         1 UNK         0.3024 
    100 H100       26.2651    0.7578   -1.4056 H         1 UNK         0.1171 
    101 H101       25.2655    1.2936    0.7998 H         1 UNK         0.0786 
    102 H102       24.2899    1.9863   -0.4843 H         1 UNK         0.0786 
    103 H103       23.7474    0.5258    0.3309 H         1 UNK         0.0786 
    104 H104       25.5035   -1.2280    0.4716 H         1 UNK         0.2977 
    105 H105       25.3218    0.4995   -5.6570 H         1 UNK         0.3127 
    106 H106       24.8991    3.0463   -6.8673 H         1 UNK         0.0770 
    107 H107       23.4422    0.3876   -7.3381 H         1 UNK         0.0814 
    108 H108       22.8358    1.9850   -7.7481 H         1 UNK         0.0814 
    109 H109       23.0597    1.5441   -6.0618 H         1 UNK         0.0814 
    110 H110       26.4958    0.1456   -8.0570 H         1 UNK         0.2983 
    111 H111       26.5643    1.0913  -10.8600 H         1 UNK         0.0947 
    112 H112       27.8372   -1.3816   -9.5777 H         1 UNK         0.0806 
    113 H113       27.6488   -1.0569  -11.2939 H         1 UNK         0.0806 
    114 H114       26.2311   -1.3620  -10.3064 H         1 UNK         0.0806 
    115 H115       27.9224    2.3501   -8.3318 H         1 UNK         0.3000 
    116 H116       29.5639    3.7467   -7.9627 H         1 UNK         0.0850 
    117 H117       31.3353    4.3235   -9.5470 H         1 UNK         0.0810 
    118 H118       29.8496    4.1481  -10.4618 H         1 UNK         0.0810 
    119 H119       31.0645    2.8704  -10.4909 H         1 UNK         0.0810 
    120 H120       31.8955    3.7645   -7.2714 H         1 UNK         0.3040 
    121 H121       32.5140    1.4445   -5.7216 H         1 UNK         0.0766 
    122 H122       33.0885    3.7294   -4.9702 H         1 UNK         0.0812 
    123 H123       34.1945    3.9345   -6.3307 H         1 UNK         0.0812 
    124 H124       34.5399    2.7489   -5.0792 H         1 UNK         0.0812 
    125 H125       33.6246    2.5921   -8.8511 H         1 UNK         0.3205 
    126 H126       35.3826    0.2178   -9.2778 H         1 UNK         0.0754 
    127 H127       35.8845    1.3538  -11.4483 H         1 UNK         0.0769 
    128 H128       36.2984    2.3812  -10.0849 H         1 UNK         0.0769 
    129 H129       34.8344    2.6957  -11.0133 H         1 UNK         0.0769 
    130 H130       33.5828   -1.1635   -8.9360 H         1 UNK         0.2981 
    131 H131       31.0497   -0.9868   -9.6646 H         1 UNK         0.0541 
    132 H132       30.3760   -1.4306  -13.0934 H         1 UNK         0.3459 
    133 H133       30.0750   -0.5268  -11.6207 H         1 UNK         0.3459 
    134 H134       30.8318   -3.4068   -9.3087 H         1 UNK         0.0612 
    135 H135       32.5261   -3.6605   -9.6331 H         1 UNK         0.0612 
    136 H136       30.0108   -3.5042   -6.8975 H         1 UNK         0.0624 
    137 H137       30.0320   -1.7824   -7.2061 H         1 UNK         0.0624 
@<TRIPOS>BOND
     1    1    2 1    
     2    1   72 1    
     3    1   73 1    
     4    1   74 1    
     5    2    3 2    
     6    2    4 am   BACKBONE|DICT|INTERRES
     7    4    5 1    
     8    4   75 1    
     9    5    6 1    
    10    5   35 1    
    11    5   76 1    
    12    6    7 1    
    13    6   77 1    
    14    6   78 1    
    15    7    8 1    
    16    8    9 1    
    17    8   79 1    
    18    8   80 1    
    19    9   10 ar   
    20    9   14 ar   
    21   10   11 ar   
    22   10   81 1    
    23   11   12 ar   
    24   11   71 1    
    25   12   13 ar   
    26   12   82 1    
    27   13   14 ar   
    28   13   15 1    
    29   14   83 1    
    30   15   16 1    
    31   15   84 1    
    32   15   85 1    
    33   16   17 1    
    34   17   18 1    
    35   17   86 1    
    36   17   87 1    
    37   18   19 1    
    38   18   37 1    
    39   18   88 1    
    40   19   20 am   BACKBONE|DICT|INTERRES
    41   19   89 1    
    42   20   21 2    
    43   20   22 1    
    44   22   23 1    
    45   22   24 1    
    46   22   90 1    
    47   23   91 1    
    48   23   92 1    
    49   23   93 1    
    50   24   25 am   BACKBONE|DICT|INTERRES
    51   24   94 1    
    52   25   26 2    
    53   25   27 1    
    54   27   28 1    
    55   27   29 1    
    56   27   95 1    
    57   28   96 1    
    58   28   97 1    
    59   28   98 1    
    60   29   30 am   BACKBONE|DICT|INTERRES
    61   29   99 1    
    62   30   31 2    
    63   30   32 1    
    64   32   33 1    
    65   32   34 1    
    66   32  100 1    
    67   33  101 1    
    68   33  102 1    
    69   33  103 1    
    70   34   35 am   BACKBONE|DICT|INTERRES
    71   34  104 1    
    72   35   36 2    
    73   37   38 2    
    74   37   39 am   BACKBONE|DICT|INTERRES
    75   39   40 1    
    76   39  105 1    
    77   40   41 1    
    78   40   42 1    
    79   40  106 1    
    80   41  107 1    
    81   41  108 1    
    82   41  109 1    
    83   42   43 2    
    84   42   44 am   BACKBONE|DICT|INTERRES
    85   44   45 1    
    86   44  110 1    
    87   45   46 1    
    88   45   47 1    
    89   45  111 1    
    90   46  112 1    
    91   46  113 1    
    92   46  114 1    
    93   47   48 2    
    94   47   49 am   BACKBONE|DICT|INTERRES
    95   49   50 1    
    96   49  115 1    
    97   50   51 1    
    98   50   52 1    
    99   50  116 1    
   100   51  117 1    
   101   51  118 1    
   102   51  119 1    
   103   52   53 2    
   104   52   54 am   BACKBONE|DICT|INTERRES
   105   54   55 1    
   106   54  120 1    
   107   55   56 1    
   108   55   57 1    
   109   55  121 1    
   110   56  122 1    
   111   56  123 1    
   112   56  124 1    
   113   57   58 2    
   114   57   59 am   BACKBONE|DICT|INTERRES
   115   59   60 1    
   116   59  125 1    
   117   60   61 1    
   118   60   62 1    
   119   60  126 1    
   120   61  127 1    
   121   61  128 1    
   122   61  129 1    
   123   62   63 2    
   124   62   64 am   BACKBONE|DICT|INTERRES
   125   64   65 1    
   126   64  130 1    
   127   65   66 1    
   128   65   69 1    
   129   65  131 1    
   130   66   67 am   BACKBONE|DICT|INTERRES
   131   66   68 2    
   132   67  132 1    
   133   67  133 1    
   134   69   70 1    
   135   69  134 1    
   136   69  135 1    
   137   70   71 1    
   138   71  136 1    
   139   71  137 1    
@<TRIPOS>SUBSTRUCTURE
     1 UNK         1 GROUP             0       ****    0 ROOT    
