@<TRIPOS>MOLECULE
3R137
137   139    1
SMALL
USER_CHARGES


@<TRIPOS>ATOM
      1 CA         27.9975   -6.1326   -6.1620 C.3       0 UNK        -0.2020 
      2 C          27.6385   -5.5734   -4.7939 C.2       0 UNK         0.4855 
      3 O          26.4559   -5.4518   -4.4736 O.2       0 UNK        -0.5197 
      4 N          28.6467   -5.2298   -3.9810 N.am      1 UNK        -0.4892 
      5 CA         28.4725   -4.6101   -2.6634 C.3       1 UNK         0.0835 
      6 C6         29.7981   -4.5986   -1.8650 C.3       12 UNK        -0.0855 
      7 S7         29.5557   -4.1195   -0.1153 S.3       12 UNK        -0.2931 
      8 C8         31.0408   -3.1291    0.2570 C.3       12 UNK         0.0378 
      9 C9         31.2447   -1.9660   -0.7059 C.ar      12 UNK        -0.0802 
     10 C10        32.2976   -2.0058   -1.6239 C.ar      12 UNK        -0.0944 
     11 C11        32.5019   -0.9567   -2.5265 C.ar      12 UNK        -0.0787 
     12 C12        31.6677    0.1630   -2.4636 C.ar      12 UNK        -0.0862 
     13 C13        30.6103    0.2208   -1.5498 C.ar      12 UNK        -0.0733 
     14 C14        30.3991   -0.8523   -0.6765 C.ar      12 UNK        -0.0832 
     15 C15        29.7178    1.4541   -1.4824 C.3       12 UNK         0.0240 
     16 S16        28.3313    1.3757   -2.6609 S.3       12 UNK        -0.2522 
     17 C17        29.1002    2.0163   -4.1832 C.3       12 UNK        -0.0967 
     18 CA         28.2649    1.8151   -5.4679 C.3       5 UNK         0.0660 
     19 N          27.9829    0.4079   -5.7680 N.am      5 UNK        -0.4015 
     20 C          27.6205   -0.0194   -6.9863 C.2       4 UNK         0.4946 
     21 O          27.4230    0.7321   -7.9411 O.2       4 UNK        -0.5353 
     22 CA         27.4006   -1.5255   -7.1647 C.3       4 UNK         0.0277 
     23 CB         28.7252   -2.3006   -7.0647 C.3       4 UNK        -0.1981 
     24 N          26.4248   -2.0264   -6.1977 N.am      4 UNK        -0.4209 
     25 C          25.1060   -1.7884   -6.2900 C.2       3 UNK         0.4942 
     26 O          24.5835   -1.2018   -7.2376 O.2       3 UNK        -0.5208 
     27 CA         24.2070   -2.2591   -5.1333 C.3       3 UNK         0.0250 
     28 CB         23.5515   -3.6076   -5.4702 C.3       3 UNK        -0.1990 
     29 N          24.9052   -2.3580   -3.8507 N.am      3 UNK        -0.4232 
     30 C          25.4069   -1.3106   -3.1798 C.2       2 UNK         0.4993 
     31 O          25.3225   -0.1475   -3.5701 O.2       2 UNK        -0.5286 
     32 CA         26.1708   -1.6163   -1.8808 C.3       2 UNK         0.0209 
     33 CB         25.2169   -1.6025   -0.6766 C.3       2 UNK        -0.1931 
     34 N          26.9039   -2.8841   -1.9117 N.am      2 UNK        -0.4546 
     35 C          27.8541   -3.2019   -2.8027 C.2       1 UNK         0.5154 
     36 O          28.2191   -2.4548   -3.7153 O.2       1 UNK        -0.5181 
     37 C          27.0150    2.7173   -5.5396 C.2       5 UNK         0.5014 
     38 O          27.1445    3.8689   -5.9567 O.2       5 UNK        -0.5248 
     39 N          25.8231    2.1823   -5.2270 N.am      6 UNK        -0.4434 
     40 CA         24.5357    2.8564   -5.4435 C.3       6 UNK         0.0363 
     41 CB         23.4040    2.0379   -4.8033 C.3       6 UNK        -0.1936 
     42 C          24.2217    3.1232   -6.9289 C.2       6 UNK         0.5081 
     43 O          23.5385    4.1012   -7.2324 O.2       6 UNK        -0.5248 
     44 N          24.7416    2.2742   -7.8258 N.am      7 UNK        -0.4718 
     45 CA         24.6644    2.4335   -9.2807 C.3       7 UNK         0.0273 
     46 CB         24.5558    1.0384   -9.9214 C.3       7 UNK        -0.1935 
     47 C          25.8671    3.2089   -9.8562 C.2       7 UNK         0.5018 
     48 O          25.9402    3.3702  -11.0752 O.2       7 UNK        -0.5186 
     49 N          26.7877    3.6575   -8.9871 N.am      8 UNK        -0.4240 
     50 CA         28.0589    4.3285   -9.2843 C.3       8 UNK         0.0235 
     51 CB         27.8203    5.7041   -9.9436 C.3       8 UNK        -0.2000 
     52 C          29.0549    3.4474  -10.0674 C.2       8 UNK         0.4941 
     53 O          29.8796    3.9784  -10.8146 O.2       8 UNK        -0.5273 
     54 N          28.9782    2.1248   -9.8752 N.am      9 UNK        -0.4262 
     55 CA         29.8965    1.1375  -10.4369 C.3       9 UNK         0.0264 
     56 CB         29.0818   -0.0879  -10.8869 C.3       9 UNK        -0.1955 
     57 C          30.9364    0.7302   -9.3828 C.2       9 UNK         0.5031 
     58 O          30.7213    0.9299   -8.1840 O.2       9 UNK        -0.5390 
     59 N          32.0400    0.1324   -9.8464 N.am      10 UNK        -0.4204 
     60 CA         33.0451   -0.4949   -8.9881 C.3       10 UNK         0.0237 
     61 CB         34.3402   -0.7092   -9.7885 C.3       10 UNK        -0.1985 
     62 C          32.5174   -1.8314   -8.4428 C.2       10 UNK         0.4970 
     63 O          31.9007   -2.5910   -9.1942 O.2       10 UNK        -0.4914 
     64 N          32.7781   -2.0948   -7.1591 N.am      11 UNK        -0.4285 
     65 CA         32.4386   -3.3550   -6.4867 C.3       11 UNK         0.1007 
     66 C          33.3203   -4.5531   -6.9457 C.2       11 UNK         0.5703 
     67 N          32.8595   -5.7788   -6.7331 N.am      11 UNK        -0.7361 
     68 O          34.4205   -4.3881   -7.4711 O.2       11 UNK        -0.4986 
     69 C69        32.4101   -3.1819   -4.9452 C.3       12 UNK        -0.0947 
     70 S70        34.0046   -2.6630   -4.2133 S.3       12 UNK        -0.2240 
     71 C71        33.6213   -0.9967   -3.5669 C.3       12 UNK         0.0194 
     72 H72        27.4466   -5.6034   -6.9392 H         1 UNK         0.0906 
     73 H73        29.0614   -6.0370   -6.3768 H         1 UNK         0.0906 
     74 H74        27.7310   -7.1876   -6.2163 H         1 UNK         0.0906 
     75 H75        29.5993   -5.3319   -4.2967 H         1 UNK         0.3140 
     76 H76        27.7630   -5.2376   -2.1185 H         1 UNK         0.1085 
     77 H77        30.5215   -3.9469   -2.3543 H         1 UNK         0.0836 
     78 H78        30.2435   -5.5947   -1.8692 H         1 UNK         0.0836 
     79 H79        31.9100   -3.7888    0.2551 H         1 UNK         0.0731 
     80 H80        30.9588   -2.7415    1.2735 H         1 UNK         0.0731 
     81 H81        32.9506   -2.8670   -1.6431 H         1 UNK         0.1312 
     82 H82        31.8473    0.9948   -3.1293 H         1 UNK         0.1406 
     83 H83        29.5824   -0.8200    0.0320 H         1 UNK         0.1631 
     84 H84        30.3038    2.3571   -1.6600 H         1 UNK         0.0717 
     85 H85        29.3083    1.5566   -0.4763 H         1 UNK         0.0717 
     86 H86        30.0593    1.5213   -4.3249 H         1 UNK         0.0934 
     87 H87        29.3315    3.0738   -4.0405 H         1 UNK         0.0934 
     88 H88        28.9059    2.1626   -6.2825 H         1 UNK         0.0739 
     89 H89        28.0926   -0.2549   -5.0112 H         1 UNK         0.3093 
     90 H90        27.0017   -1.6854   -8.1691 H         1 UNK         0.0818 
     91 H91        28.5780   -3.3643   -7.2461 H         1 UNK         0.0819 
     92 H92        29.4350   -1.9421   -7.8114 H         1 UNK         0.0819 
     93 H93        29.2014   -2.1872   -6.0912 H         1 UNK         0.0819 
     94 H94        26.7903   -2.4645   -5.3602 H         1 UNK         0.3041 
     95 H95        23.4134   -1.5176   -5.0188 H         1 UNK         0.0784 
     96 H96        22.9755   -3.5392   -6.3942 H         1 UNK         0.0793 
     97 H97        24.2927   -4.3949   -5.6084 H         1 UNK         0.0793 
     98 H98        22.8652   -3.9246   -4.6849 H         1 UNK         0.0793 
     99 H99        25.0544   -3.2870   -3.4815 H         1 UNK         0.3024 
    100 H100       26.9057   -0.8251   -1.7383 H         1 UNK         0.1171 
    101 H101       24.4735   -2.3982   -0.7390 H         1 UNK         0.0786 
    102 H102       25.7599   -1.7206    0.2614 H         1 UNK         0.0786 
    103 H103       24.6777   -0.6556   -0.6191 H         1 UNK         0.0786 
    104 H104       26.6806   -3.5500   -1.1857 H         1 UNK         0.2977 
    105 H105       25.7865    1.2550   -4.8076 H         1 UNK         0.3127 
    106 H106       24.5809    3.8247   -4.9408 H         1 UNK         0.0770 
    107 H107       23.3339    1.0407   -5.2395 H         1 UNK         0.0814 
    108 H108       22.4386    2.5257   -4.9447 H         1 UNK         0.0814 
    109 H109       23.5543    1.9257   -3.7295 H         1 UNK         0.0814 
    110 H110       25.3085    1.5009   -7.4983 H         1 UNK         0.2983 
    111 H111       23.7651    2.9961   -9.5404 H         1 UNK         0.0947 
    112 H112       25.4469    0.4378   -9.7355 H         1 UNK         0.0806 
    113 H113       24.4305    1.1100  -11.0025 H         1 UNK         0.0806 
    114 H114       23.6984    0.4892   -9.5320 H         1 UNK         0.0806 
    115 H115       26.6261    3.4736   -8.0040 H         1 UNK         0.3000 
    116 H116       28.5290    4.5101   -8.3168 H         1 UNK         0.0850 
    117 H117       28.7504    6.2687  -10.0184 H         1 UNK         0.0810 
    118 H118       27.1236    6.3073   -9.3615 H         1 UNK         0.0810 
    119 H119       27.4193    5.6063  -10.9528 H         1 UNK         0.0810 
    120 H120       28.3255    1.7609   -9.1819 H         1 UNK         0.3040 
    121 H121       30.4162    1.5517  -11.3035 H         1 UNK         0.0766 
    122 H122       28.3196    0.1902  -11.6151 H         1 UNK         0.0812 
    123 H123       28.5796   -0.5703  -10.0478 H         1 UNK         0.0812 
    124 H124       29.7206   -0.8371  -11.3561 H         1 UNK         0.0812 
    125 H125       32.1254   -0.0352  -10.8385 H         1 UNK         0.3205 
    126 H126       33.2611    0.1757   -8.1531 H         1 UNK         0.0754 
    127 H127       35.1132   -1.1604   -9.1646 H         1 UNK         0.0769 
    128 H128       34.7367    0.2348  -10.1629 H         1 UNK         0.0769 
    129 H129       34.1843   -1.3710  -10.6416 H         1 UNK         0.0769 
    130 H130       33.3295   -1.4455   -6.6194 H         1 UNK         0.2981 
    131 H131       31.4194   -3.6023   -6.7903 H         1 UNK         0.0541 
    132 H132       33.4229   -6.5650   -7.0168 H         1 UNK         0.3459 
    133 H133       31.9651   -5.9375   -6.2995 H         1 UNK         0.3459 
    134 H134       32.1073   -4.1125   -4.4630 H         1 UNK         0.0612 
    135 H135       31.6363   -2.4590   -4.6819 H         1 UNK         0.0612 
    136 H136       34.5253   -0.5825   -3.1191 H         1 UNK         0.0624 
    137 H137       33.3710   -0.3545   -4.4127 H         1 UNK         0.0624 
@<TRIPOS>BOND
     1    1    2 1    
     2    1   72 1    
     3    1   73 1    
     4    1   74 1    
     5    2    3 2    
     6    2    4 am   BACKBONE|DICT|INTERRES
     7    4    5 1    
     8    4   75 1    
     9    5    6 1    
    10    5   35 1    
    11    5   76 1    
    12    6    7 1    
    13    6   77 1    
    14    6   78 1    
    15    7    8 1    
    16    8    9 1    
    17    8   79 1    
    18    8   80 1    
    19    9   10 ar   
    20    9   14 ar   
    21   10   11 ar   
    22   10   81 1    
    23   11   12 ar   
    24   11   71 1    
    25   12   13 ar   
    26   12   82 1    
    27   13   14 ar   
    28   13   15 1    
    29   14   83 1    
    30   15   16 1    
    31   15   84 1    
    32   15   85 1    
    33   16   17 1    
    34   17   18 1    
    35   17   86 1    
    36   17   87 1    
    37   18   19 1    
    38   18   37 1    
    39   18   88 1    
    40   19   20 am   BACKBONE|DICT|INTERRES
    41   19   89 1    
    42   20   21 2    
    43   20   22 1    
    44   22   23 1    
    45   22   24 1    
    46   22   90 1    
    47   23   91 1    
    48   23   92 1    
    49   23   93 1    
    50   24   25 am   BACKBONE|DICT|INTERRES
    51   24   94 1    
    52   25   26 2    
    53   25   27 1    
    54   27   28 1    
    55   27   29 1    
    56   27   95 1    
    57   28   96 1    
    58   28   97 1    
    59   28   98 1    
    60   29   30 am   BACKBONE|DICT|INTERRES
    61   29   99 1    
    62   30   31 2    
    63   30   32 1    
    64   32   33 1    
    65   32   34 1    
    66   32  100 1    
    67   33  101 1    
    68   33  102 1    
    69   33  103 1    
    70   34   35 am   BACKBONE|DICT|INTERRES
    71   34  104 1    
    72   35   36 2    
    73   37   38 2    
    74   37   39 am   BACKBONE|DICT|INTERRES
    75   39   40 1    
    76   39  105 1    
    77   40   41 1    
    78   40   42 1    
    79   40  106 1    
    80   41  107 1    
    81   41  108 1    
    82   41  109 1    
    83   42   43 2    
    84   42   44 am   BACKBONE|DICT|INTERRES
    85   44   45 1    
    86   44  110 1    
    87   45   46 1    
    88   45   47 1    
    89   45  111 1    
    90   46  112 1    
    91   46  113 1    
    92   46  114 1    
    93   47   48 2    
    94   47   49 am   BACKBONE|DICT|INTERRES
    95   49   50 1    
    96   49  115 1    
    97   50   51 1    
    98   50   52 1    
    99   50  116 1    
   100   51  117 1    
   101   51  118 1    
   102   51  119 1    
   103   52   53 2    
   104   52   54 am   BACKBONE|DICT|INTERRES
   105   54   55 1    
   106   54  120 1    
   107   55   56 1    
   108   55   57 1    
   109   55  121 1    
   110   56  122 1    
   111   56  123 1    
   112   56  124 1    
   113   57   58 2    
   114   57   59 am   BACKBONE|DICT|INTERRES
   115   59   60 1    
   116   59  125 1    
   117   60   61 1    
   118   60   62 1    
   119   60  126 1    
   120   61  127 1    
   121   61  128 1    
   122   61  129 1    
   123   62   63 2    
   124   62   64 am   BACKBONE|DICT|INTERRES
   125   64   65 1    
   126   64  130 1    
   127   65   66 1    
   128   65   69 1    
   129   65  131 1    
   130   66   67 am   BACKBONE|DICT|INTERRES
   131   66   68 2    
   132   67  132 1    
   133   67  133 1    
   134   69   70 1    
   135   69  134 1    
   136   69  135 1    
   137   70   71 1    
   138   71  136 1    
   139   71  137 1    
@<TRIPOS>SUBSTRUCTURE
     1 UNK         1 GROUP             0       ****    0 ROOT    
