@<TRIPOS>MOLECULE
3R137
137   139    1
SMALL
USER_CHARGES


@<TRIPOS>ATOM
      1 CA         31.2504   -1.5768    2.7913 C.3       0 UNK        -0.2020 
      2 C          30.9883   -1.4174    1.3010 C.2       0 UNK         0.4855 
      3 O          31.8566   -0.9322    0.5756 O.2       0 UNK        -0.5197 
      4 N          29.7994   -1.8174    0.8434 N.am      1 UNK        -0.4892 
      5 CA         29.3441   -1.7452   -0.5443 C.3       1 UNK         0.0835 
      6 C6         30.0032   -2.8181   -1.4546 C.3       12 UNK        -0.0855 
      7 S7         29.6968   -4.5482   -0.9384 S.3       12 UNK        -0.2931 
      8 C8         31.0098   -5.4373   -1.8377 C.3       12 UNK         0.0378 
      9 C9         30.9801   -5.1384   -3.3301 C.ar      12 UNK        -0.0802 
     10 C10        32.0343   -4.4410   -3.9281 C.ar      12 UNK        -0.0944 
     11 C11        31.9895   -4.1132   -5.2862 C.ar      12 UNK        -0.0787 
     12 C12        30.8878   -4.5088   -6.0504 C.ar      12 UNK        -0.0862 
     13 C13        29.8113   -5.1716   -5.4553 C.ar      12 UNK        -0.0733 
     14 C14        29.8751   -5.5110   -4.1014 C.ar      12 UNK        -0.0832 
     15 C15        28.5478   -5.4444   -6.2583 C.3       12 UNK         0.0240 
     16 S16        27.1589   -4.3955   -5.7049 S.3       12 UNK        -0.2522 
     17 C17        27.8280   -2.7017   -5.8756 C.3       12 UNK        -0.0967 
     18 CA         27.0851   -1.8734   -6.9470 C.3       5 UNK         0.0660 
     19 N          25.6619   -1.7166   -6.6465 N.am      5 UNK        -0.4015 
     20 C          24.7495   -1.2408   -7.5034 C.2       4 UNK         0.4946 
     21 O          25.0039   -0.9020   -8.6595 O.2       4 UNK        -0.5353 
     22 CA         23.3218   -1.0762   -6.9582 C.3       4 UNK         0.0277 
     23 CB         22.5742   -2.4193   -6.9754 C.3       4 UNK        -0.1981 
     24 N          23.3061   -0.5163   -5.6033 N.am      4 UNK        -0.4209 
     25 C          23.6863    0.7346   -5.3050 C.2       3 UNK         0.4942 
     26 O          24.0395    1.5609   -6.1449 O.2       3 UNK        -0.5208 
     27 CA         23.7078    1.1225   -3.8171 C.3       3 UNK         0.0250 
     28 CB         22.3164    1.5918   -3.3623 C.3       3 UNK        -0.1990 
     29 N          24.1867    0.0614   -2.9226 N.am      3 UNK        -0.4232 
     30 C          25.4016   -0.5007   -2.9813 C.2       2 UNK         0.4993 
     31 O          26.2327   -0.2611   -3.8606 O.2       2 UNK        -0.5286 
     32 CA         25.7410   -1.5247   -1.8968 C.3       2 UNK         0.0209 
     33 CB         25.2766   -2.9333   -2.3079 C.3       2 UNK        -0.1931 
     34 N          27.1882   -1.5203   -1.6958 N.am      2 UNK        -0.4546 
     35 C          27.8047   -1.8185   -0.5479 C.2       1 UNK         0.5154 
     36 O          27.2046   -2.1431    0.4832 O.2       1 UNK        -0.5181 
     37 C          27.7629   -0.5062   -7.1534 C.2       5 UNK         0.5014 
     38 O          28.5098   -0.3503   -8.1166 O.2       5 UNK        -0.5248 
     39 N          27.4580    0.4612   -6.2759 N.am      6 UNK        -0.4434 
     40 CA         27.9349    1.8458   -6.3375 C.3       6 UNK         0.0363 
     41 CB         27.5532    2.5652   -5.0344 C.3       6 UNK        -0.1936 
     42 C          27.4225    2.6352   -7.5580 C.2       6 UNK         0.5081 
     43 O          28.0604    3.6112   -7.9538 O.2       6 UNK        -0.5248 
     44 N          26.2839    2.2220   -8.1301 N.am      7 UNK        -0.4718 
     45 CA         25.7709    2.7429   -9.3971 C.3       7 UNK         0.0273 
     46 CB         24.2515    2.5211   -9.4701 C.3       7 UNK        -0.1935 
     47 C          26.4771    2.0988  -10.6019 C.2       7 UNK         0.5018 
     48 O          26.7429    2.7920  -11.5846 O.2       7 UNK        -0.5186 
     49 N          26.7542    0.7899  -10.5138 N.am      8 UNK        -0.4240 
     50 CA         27.3877   -0.0012  -11.5700 C.3       8 UNK         0.0235 
     51 CB         27.1498   -1.4955  -11.2967 C.3       8 UNK        -0.2000 
     52 C          28.8908    0.2788  -11.7422 C.2       8 UNK         0.4941 
     53 O          29.3669    0.2930  -12.8787 O.2       8 UNK        -0.5273 
     54 N          29.6147    0.4697  -10.6337 N.am      9 UNK        -0.4262 
     55 CA         31.0660    0.6487  -10.5932 C.3       9 UNK         0.0264 
     56 CB         31.7389   -0.7368  -10.5354 C.3       9 UNK        -0.1955 
     57 C          31.4549    1.5148   -9.3874 C.2       9 UNK         0.5031 
     58 O          30.5969    1.8695   -8.5785 O.2       9 UNK        -0.5390 
     59 N          32.7506    1.8318   -9.2587 N.am      10 UNK        -0.4204 
     60 CA         33.3310    2.6151   -8.1582 C.3       10 UNK         0.0237 
     61 CB         34.6979    3.1664   -8.6080 C.3       10 UNK        -0.1985 
     62 C          33.4157    1.8226   -6.8329 C.2       10 UNK         0.4970 
     63 O          34.4949    1.7078   -6.2479 O.2       10 UNK        -0.4914 
     64 N          32.2736    1.2822   -6.3999 N.am      11 UNK        -0.4285 
     65 CA         32.0990    0.4224   -5.2194 C.3       11 UNK         0.1007 
     66 C          31.2798    1.1069   -4.0860 C.2       11 UNK         0.5703 
     67 N          31.0130    2.4068   -4.1532 N.am      11 UNK        -0.7361 
     68 O          30.8857    0.4544   -3.1216 O.2       11 UNK        -0.4986 
     69 C69        31.4904   -0.9477   -5.6169 C.3       12 UNK        -0.0947 
     70 S70        32.4905   -1.8494   -6.8542 S.3       12 UNK        -0.2240 
     71 C71        33.1081   -3.2836   -5.9076 C.3       12 UNK         0.0194 
     72 H72        32.1225   -2.2101    2.9528 H         1 UNK         0.0906 
     73 H73        31.4455   -0.6052    3.2446 H         1 UNK         0.0906 
     74 H74        30.4037   -2.0288    3.3083 H         1 UNK         0.0906 
     75 H75        29.0886   -2.1767    1.4708 H         1 UNK         0.3140 
     76 H76        29.6101   -0.7578   -0.9296 H         1 UNK         0.1085 
     77 H77        29.6652   -2.6991   -2.4859 H         1 UNK         0.0836 
     78 H78        31.0810   -2.6509   -1.4853 H         1 UNK         0.0836 
     79 H79        31.9762   -5.1724   -1.4057 H         1 UNK         0.0731 
     80 H80        30.8860   -6.5098   -1.6818 H         1 UNK         0.0731 
     81 H81        32.8782   -4.1279   -3.3285 H         1 UNK         0.1312 
     82 H82        30.8399   -4.2383   -7.0965 H         1 UNK         0.1406 
     83 H83        29.0388   -6.0132   -3.6337 H         1 UNK         0.1631 
     84 H84        28.2682   -6.4933   -6.1507 H         1 UNK         0.0717 
     85 H85        28.7173   -5.2771   -7.3231 H         1 UNK         0.0717 
     86 H86        27.7729   -2.2174   -4.8993 H         1 UNK         0.0934 
     87 H87        28.8878   -2.7440   -6.1223 H         1 UNK         0.0934 
     88 H88        27.1593   -2.4127   -7.8940 H         1 UNK         0.0739 
     89 H89        25.3773   -1.9448   -5.7062 H         1 UNK         0.3093 
     90 H90        22.7943   -0.3831   -7.6175 H         1 UNK         0.0818 
     91 H91        21.5359   -2.2991   -6.6658 H         1 UNK         0.0819 
     92 H92        22.5631   -2.8446   -7.9801 H         1 UNK         0.0819 
     93 H93        23.0389   -3.1540   -6.3164 H         1 UNK         0.0819 
     94 H94        23.0162   -1.1249   -4.8518 H         1 UNK         0.3041 
     95 H95        24.3961    1.9641   -3.7149 H         1 UNK         0.0784 
     96 H96        21.9473    2.3946   -4.0024 H         1 UNK         0.0793 
     97 H97        21.5839    0.7843   -3.3976 H         1 UNK         0.0793 
     98 H98        22.3411    1.9796   -2.3437 H         1 UNK         0.0793 
     99 H99        23.5613   -0.2107   -2.1773 H         1 UNK         0.3024 
    100 H100       25.2427   -1.2276   -0.9708 H         1 UNK         0.1171 
    101 H101       24.1992   -2.9617   -2.4748 H         1 UNK         0.0786 
    102 H102       25.5025   -3.6659   -1.5328 H         1 UNK         0.0786 
    103 H103       25.7610   -3.2640   -3.2271 H         1 UNK         0.0786 
    104 H104       27.7177   -1.1932   -2.4944 H         1 UNK         0.2977 
    105 H105       26.8726    0.2244   -5.4751 H         1 UNK         0.3127 
    106 H106       29.0236    1.8145   -6.4039 H         1 UNK         0.0770 
    107 H107       26.4713    2.6286   -4.9152 H         1 UNK         0.0814 
    108 H108       27.9452    3.5829   -5.0215 H         1 UNK         0.0814 
    109 H109       27.9577    2.0497   -4.1631 H         1 UNK         0.0814 
    110 H110       25.7633    1.4718   -7.6928 H         1 UNK         0.2983 
    111 H111       25.9543    3.8190   -9.4392 H         1 UNK         0.0947 
    112 H112       23.8424    2.9291  -10.3953 H         1 UNK         0.0806 
    113 H113       23.7403    3.0145   -8.6432 H         1 UNK         0.0806 
    114 H114       23.9920    1.4627   -9.4374 H         1 UNK         0.0806 
    115 H115       26.4661    0.2885   -9.6809 H         1 UNK         0.3000 
    116 H116       26.8979    0.2488  -12.5136 H         1 UNK         0.0850 
    117 H117       27.5781   -2.1111  -12.0888 H         1 UNK         0.0810 
    118 H118       26.0851   -1.7251  -11.2461 H         1 UNK         0.0810 
    119 H119       27.6041   -1.8101  -10.3566 H         1 UNK         0.0810 
    120 H120       29.1618    0.4454   -9.7196 H         1 UNK         0.3040 
    121 H121       31.3937    1.1771  -11.4909 H         1 UNK         0.0766 
    122 H122       32.8257   -0.6599  -10.4963 H         1 UNK         0.0812 
    123 H123       31.4929   -1.3327  -11.4144 H         1 UNK         0.0812 
    124 H124       31.4176   -1.2962   -9.6559 H         1 UNK         0.0812 
    125 H125       33.4021    1.4794   -9.9451 H         1 UNK         0.3205 
    126 H126       32.6793    3.4712   -7.9700 H         1 UNK         0.0754 
    127 H127       35.1374    3.8013   -7.8373 H         1 UNK         0.0769 
    128 H128       34.6042    3.7746   -9.5081 H         1 UNK         0.0769 
    129 H129       35.4082    2.3650   -8.8155 H         1 UNK         0.0769 
    130 H130       31.4461    1.4283   -6.9745 H         1 UNK         0.2981 
    131 H131       33.0749    0.2228   -4.7745 H         1 UNK         0.0541 
    132 H132       31.3471    2.9599   -4.9259 H         1 UNK         0.3459 
    133 H133       30.4949    2.8401   -3.4066 H         1 UNK         0.3459 
    134 H134       30.4949   -0.8050   -6.0374 H         1 UNK         0.0612 
    135 H135       31.3568   -1.5740   -4.7341 H         1 UNK         0.0612 
    136 H136       33.7936   -2.9193   -5.1409 H         1 UNK         0.0624 
    137 H137       33.6930   -3.9198   -6.5727 H         1 UNK         0.0624 
@<TRIPOS>BOND
     1    1    2 1    
     2    1   72 1    
     3    1   73 1    
     4    1   74 1    
     5    2    3 2    
     6    2    4 am   BACKBONE|DICT|INTERRES
     7    4    5 1    
     8    4   75 1    
     9    5    6 1    
    10    5   35 1    
    11    5   76 1    
    12    6    7 1    
    13    6   77 1    
    14    6   78 1    
    15    7    8 1    
    16    8    9 1    
    17    8   79 1    
    18    8   80 1    
    19    9   10 ar   
    20    9   14 ar   
    21   10   11 ar   
    22   10   81 1    
    23   11   12 ar   
    24   11   71 1    
    25   12   13 ar   
    26   12   82 1    
    27   13   14 ar   
    28   13   15 1    
    29   14   83 1    
    30   15   16 1    
    31   15   84 1    
    32   15   85 1    
    33   16   17 1    
    34   17   18 1    
    35   17   86 1    
    36   17   87 1    
    37   18   19 1    
    38   18   37 1    
    39   18   88 1    
    40   19   20 am   BACKBONE|DICT|INTERRES
    41   19   89 1    
    42   20   21 2    
    43   20   22 1    
    44   22   23 1    
    45   22   24 1    
    46   22   90 1    
    47   23   91 1    
    48   23   92 1    
    49   23   93 1    
    50   24   25 am   BACKBONE|DICT|INTERRES
    51   24   94 1    
    52   25   26 2    
    53   25   27 1    
    54   27   28 1    
    55   27   29 1    
    56   27   95 1    
    57   28   96 1    
    58   28   97 1    
    59   28   98 1    
    60   29   30 am   BACKBONE|DICT|INTERRES
    61   29   99 1    
    62   30   31 2    
    63   30   32 1    
    64   32   33 1    
    65   32   34 1    
    66   32  100 1    
    67   33  101 1    
    68   33  102 1    
    69   33  103 1    
    70   34   35 am   BACKBONE|DICT|INTERRES
    71   34  104 1    
    72   35   36 2    
    73   37   38 2    
    74   37   39 am   BACKBONE|DICT|INTERRES
    75   39   40 1    
    76   39  105 1    
    77   40   41 1    
    78   40   42 1    
    79   40  106 1    
    80   41  107 1    
    81   41  108 1    
    82   41  109 1    
    83   42   43 2    
    84   42   44 am   BACKBONE|DICT|INTERRES
    85   44   45 1    
    86   44  110 1    
    87   45   46 1    
    88   45   47 1    
    89   45  111 1    
    90   46  112 1    
    91   46  113 1    
    92   46  114 1    
    93   47   48 2    
    94   47   49 am   BACKBONE|DICT|INTERRES
    95   49   50 1    
    96   49  115 1    
    97   50   51 1    
    98   50   52 1    
    99   50  116 1    
   100   51  117 1    
   101   51  118 1    
   102   51  119 1    
   103   52   53 2    
   104   52   54 am   BACKBONE|DICT|INTERRES
   105   54   55 1    
   106   54  120 1    
   107   55   56 1    
   108   55   57 1    
   109   55  121 1    
   110   56  122 1    
   111   56  123 1    
   112   56  124 1    
   113   57   58 2    
   114   57   59 am   BACKBONE|DICT|INTERRES
   115   59   60 1    
   116   59  125 1    
   117   60   61 1    
   118   60   62 1    
   119   60  126 1    
   120   61  127 1    
   121   61  128 1    
   122   61  129 1    
   123   62   63 2    
   124   62   64 am   BACKBONE|DICT|INTERRES
   125   64   65 1    
   126   64  130 1    
   127   65   66 1    
   128   65   69 1    
   129   65  131 1    
   130   66   67 am   BACKBONE|DICT|INTERRES
   131   66   68 2    
   132   67  132 1    
   133   67  133 1    
   134   69   70 1    
   135   69  134 1    
   136   69  135 1    
   137   70   71 1    
   138   71  136 1    
   139   71  137 1    
@<TRIPOS>SUBSTRUCTURE
     1 UNK         1 GROUP             0       ****    0 ROOT    
