@<TRIPOS>MOLECULE
3R137
137   139    1
SMALL
USER_CHARGES


@<TRIPOS>ATOM
      1 CA         28.8737   -6.6375   -7.2697 C.3       0 UNK        -0.2020 
      2 C          28.9118   -6.3448   -5.7772 C.2       0 UNK         0.4855 
      3 O          29.7581   -6.8875   -5.0669 O.2       0 UNK        -0.5197 
      4 N          28.0022   -5.4912   -5.2994 N.am      1 UNK        -0.4892 
      5 CA         27.8538   -5.0707   -3.9076 C.3       1 UNK         0.0835 
      6 C6         29.0039   -4.1391   -3.4348 C.3       12 UNK        -0.0855 
      7 S7         29.2923   -4.2640   -1.6381 S.3       12 UNK        -0.2931 
      8 C8         30.9686   -3.5672   -1.5057 C.3       12 UNK         0.0378 
      9 C9         30.9984   -2.1038   -1.9200 C.ar      12 UNK        -0.0802 
     10 C10        31.5213   -1.7304   -3.1614 C.ar      12 UNK        -0.0944 
     11 C11        31.5428   -0.3862   -3.5441 C.ar      12 UNK        -0.0787 
     12 C12        31.0480    0.5859   -2.6733 C.ar      12 UNK        -0.0862 
     13 C13        30.4740    0.2197   -1.4525 C.ar      12 UNK        -0.0733 
     14 C14        30.4729   -1.1254   -1.0716 C.ar      12 UNK        -0.0832 
     15 C15        29.8089    1.2623   -0.5619 C.3       12 UNK         0.0240 
     16 S16        28.6509    2.3537   -1.4626 S.3       12 UNK        -0.2522 
     17 C17        27.6136    1.1874   -2.4211 C.3       12 UNK        -0.0967 
     18 CA         27.8037    1.3329   -3.9567 C.3       5 UNK         0.0660 
     19 N          27.2504    0.1884   -4.6869 N.am      5 UNK        -0.4015 
     20 C          27.4487   -0.0500   -5.9951 C.2       4 UNK         0.4946 
     21 O          28.2278    0.5895   -6.7010 O.2       4 UNK        -0.5353 
     22 CA         26.6198   -1.1594   -6.6667 C.3       4 UNK         0.0277 
     23 CB         27.4824   -2.4098   -6.8836 C.3       4 UNK        -0.1981 
     24 N          25.3901   -1.5041   -5.9484 N.am      4 UNK        -0.4209 
     25 C          24.3756   -0.6485   -5.7398 C.2       3 UNK         0.4942 
     26 O          24.3472    0.4922   -6.2034 O.2       3 UNK        -0.5208 
     27 CA         23.2337   -1.0963   -4.8092 C.3       3 UNK         0.0250 
     28 CB         22.0217   -1.5526   -5.6359 C.3       3 UNK        -0.1990 
     29 N          23.5984   -2.1529   -3.8593 N.am      3 UNK        -0.4232 
     30 C          24.5933   -2.0998   -2.9610 C.2       2 UNK         0.4993 
     31 O          25.3338   -1.1247   -2.8172 O.2       2 UNK        -0.5286 
     32 CA         24.8574   -3.3712   -2.1312 C.3       2 UNK         0.0209 
     33 CB         23.6930   -4.3883   -2.1481 C.3       2 UNK        -0.1931 
     34 N          26.1085   -4.0300   -2.5306 N.am      2 UNK        -0.4546 
     35 C          26.4676   -4.4125   -3.7649 C.2       1 UNK         0.5154 
     36 O          25.7654   -4.2474   -4.7697 O.2       1 UNK        -0.5181 
     37 C          27.2144    2.6610   -4.4779 C.2       5 UNK         0.5014 
     38 O          27.9654    3.6000   -4.7453 O.2       5 UNK        -0.5248 
     39 N          25.8827    2.7063   -4.6290 N.am      6 UNK        -0.4434 
     40 CA         25.1454    3.8720   -5.1172 C.3       6 UNK         0.0363 
     41 CB         23.6602    3.7327   -4.7449 C.3       6 UNK        -0.1936 
     42 C          25.3098    4.0716   -6.6310 C.2       6 UNK         0.5081 
     43 O          25.4803    5.2060   -7.0781 O.2       6 UNK        -0.5248 
     44 N          25.2575    2.9695   -7.3909 N.am      7 UNK        -0.4718 
     45 CA         25.3818    2.9685   -8.8508 C.3       7 UNK         0.0273 
     46 CB         24.7966    1.6567   -9.3990 C.3       7 UNK        -0.1935 
     47 C          26.8227    3.1643   -9.3571 C.2       7 UNK         0.5018 
     48 O          26.9915    3.5060  -10.5282 O.2       7 UNK        -0.5186 
     49 N          27.8207    2.9180   -8.4919 N.am      8 UNK        -0.4240 
     50 CA         29.2606    2.8575   -8.7842 C.3       8 UNK         0.0235 
     51 CB         29.8103    4.2450   -9.1782 C.3       8 UNK        -0.2000 
     52 C          29.5791    1.7559   -9.8158 C.2       8 UNK         0.4941 
     53 O          30.3073    1.9939  -10.7811 O.2       8 UNK        -0.5273 
     54 N          28.9859    0.5745   -9.6000 N.am      9 UNK        -0.4262 
     55 CA         28.9872   -0.5587  -10.5326 C.3       9 UNK         0.0264 
     56 CB         27.5439   -1.0744  -10.6815 C.3       9 UNK        -0.1955 
     57 C          29.9444   -1.6873  -10.1070 C.2       9 UNK         0.5031 
     58 O          29.8768   -2.7806  -10.6713 O.2       9 UNK        -0.5390 
     59 N          30.8077   -1.4210   -9.1234 N.am      10 UNK        -0.4204 
     60 CA         31.8012   -2.3373   -8.5721 C.3       10 UNK         0.0237 
     61 CB         31.1315   -3.2597   -7.5280 C.3       10 UNK        -0.1985 
     62 C          32.9479   -1.5049   -7.9769 C.2       10 UNK         0.4970 
     63 O          32.9391   -0.2787   -8.1165 O.2       10 UNK        -0.4914 
     64 N          33.8764   -2.1875   -7.2941 N.am      11 UNK        -0.4285 
     65 CA         35.0127   -1.6396   -6.5324 C.3       11 UNK         0.1007 
     66 C          35.9661   -0.7061   -7.3424 C.2       11 UNK         0.5703 
     67 N          36.7075    0.1809   -6.6917 N.am      11 UNK        -0.7361 
     68 O          36.0980   -0.8334   -8.5588 O.2       11 UNK        -0.4986 
     69 C69        34.6075   -1.1591   -5.1004 C.3       12 UNK        -0.0947 
     70 S70        33.7791    0.4666   -4.9784 S.3       12 UNK        -0.2240 
     71 C71        32.0160    0.0165   -4.9293 C.3       12 UNK         0.0194 
     72 H72        29.8465   -6.4339   -7.7166 H         1 UNK         0.0906 
     73 H73        28.6329   -7.6863   -7.4407 H         1 UNK         0.0906 
     74 H74        28.1317   -6.0285   -7.7860 H         1 UNK         0.0906 
     75 H75        27.2688   -5.1227   -5.8949 H         1 UNK         0.3140 
     76 H76        27.8432   -5.9796   -3.3014 H         1 UNK         0.1085 
     77 H77        29.9378   -4.4085   -3.9297 H         1 UNK         0.0836 
     78 H78        28.8202   -3.0965   -3.7034 H         1 UNK         0.0836 
     79 H79        31.6583   -4.1584   -2.1104 H         1 UNK         0.0731 
     80 H80        31.3112   -3.6596   -0.4740 H         1 UNK         0.0731 
     81 H81        31.8893   -2.4892   -3.8377 H         1 UNK         0.1312 
     82 H82        31.0523    1.6249   -2.9738 H         1 UNK         0.1406 
     83 H83        30.0364   -1.4208   -0.1268 H         1 UNK         0.1631 
     84 H84        30.5811    1.8744   -0.0945 H         1 UNK         0.0717 
     85 H85        29.2612    0.7815    0.2501 H         1 UNK         0.0717 
     86 H86        27.8470    0.1671   -2.1133 H         1 UNK         0.0934 
     87 H87        26.5696    1.3370   -2.1390 H         1 UNK         0.0934 
     88 H88        28.8728    1.3491   -4.1727 H         1 UNK         0.0739 
     89 H89        26.5917   -0.3894   -4.1723 H         1 UNK         0.3093 
     90 H90        26.3193   -0.7860   -7.6457 H         1 UNK         0.0818 
     91 H91        28.3265   -2.1876   -7.5360 H         1 UNK         0.0819 
     92 H92        27.8935   -2.7780   -5.9455 H         1 UNK         0.0819 
     93 H93        26.9147   -3.2140   -7.3517 H         1 UNK         0.0819 
     94 H94        25.3458   -2.4292   -5.5302 H         1 UNK         0.3041 
     95 H95        22.9400   -0.2228   -4.2236 H         1 UNK         0.0784 
     96 H96        21.7109   -0.7748   -6.3353 H         1 UNK         0.0793 
     97 H97        22.2454   -2.4460   -6.2204 H         1 UNK         0.0793 
     98 H98        21.1650   -1.7722   -4.9985 H         1 UNK         0.0793 
     99 H99        23.0792   -3.0162   -3.9293 H         1 UNK         0.3024 
    100 H100       24.9900   -3.0339   -1.1016 H         1 UNK         0.1171 
    101 H101       23.8852   -5.2076   -1.4550 H         1 UNK         0.0786 
    102 H102       22.7564   -3.9240   -1.8357 H         1 UNK         0.0786 
    103 H103       23.5375   -4.8281   -3.1340 H         1 UNK         0.0786 
    104 H104       26.7919   -4.1513   -1.7933 H         1 UNK         0.2977 
    105 H105       25.3418    1.8721   -4.4498 H         1 UNK         0.3127 
    106 H106       25.5379    4.7611   -4.6184 H         1 UNK         0.0770 
    107 H107       23.2076    2.8508   -5.2002 H         1 UNK         0.0814 
    108 H108       23.0920    4.6006   -5.0823 H         1 UNK         0.0814 
    109 H109       23.5268    3.6593   -3.6655 H         1 UNK         0.0814 
    110 H110       25.0483    2.0783   -6.9449 H         1 UNK         0.2983 
    111 H111       24.7868    3.7952   -9.2457 H         1 UNK         0.0947 
    112 H112       24.8192    1.6434  -10.4896 H         1 UNK         0.0806 
    113 H113       23.7577    1.5272   -9.0947 H         1 UNK         0.0806 
    114 H114       25.3565    0.7895   -9.0516 H         1 UNK         0.0806 
    115 H115       27.5631    2.6070   -7.5638 H         1 UNK         0.3000 
    116 H116       29.7519    2.5615   -7.8558 H         1 UNK         0.0850 
    117 H117       30.8959    4.2182   -9.2787 H         1 UNK         0.0810 
    118 H118       29.5727    4.9934   -8.4223 H         1 UNK         0.0810 
    119 H119       29.4056    4.5890  -10.1304 H         1 UNK         0.0810 
    120 H120       28.4806    0.4585   -8.7269 H         1 UNK         0.3040 
    121 H121       29.3204   -0.2246  -11.5173 H         1 UNK         0.0766 
    122 H122       26.8658   -0.2746  -10.9797 H         1 UNK         0.0812 
    123 H123       27.1691   -1.5077   -9.7551 H         1 UNK         0.0812 
    124 H124       27.4818   -1.8481  -11.4479 H         1 UNK         0.0812 
    125 H125       30.8770   -0.4735   -8.7725 H         1 UNK         0.3205 
    126 H126       32.2191   -2.9419   -9.3799 H         1 UNK         0.0754 
    127 H127       31.8281   -4.0004   -7.1349 H         1 UNK         0.0769 
    128 H128       30.3015   -3.8138   -7.9665 H         1 UNK         0.0769 
    129 H129       30.7394   -2.6950   -6.6814 H         1 UNK         0.0769 
    130 H130       33.8067   -3.1941   -7.2808 H         1 UNK         0.2981 
    131 H131       35.6360   -2.5192   -6.3678 H         1 UNK         0.0541 
    132 H132       36.6041    0.3053   -5.6970 H         1 UNK         0.3459 
    133 H133       37.3444    0.7651   -7.2101 H         1 UNK         0.3459 
    134 H134       35.4991   -1.1070   -4.4739 H         1 UNK         0.0612 
    135 H135       33.9834   -1.9150   -4.6256 H         1 UNK         0.0612 
    136 H136       31.4325    0.8680   -5.2831 H         1 UNK         0.0624 
    137 H137       31.8080   -0.7911   -5.6259 H         1 UNK         0.0624 
@<TRIPOS>BOND
     1    1    2 1    
     2    1   72 1    
     3    1   73 1    
     4    1   74 1    
     5    2    3 2    
     6    2    4 am   BACKBONE|DICT|INTERRES
     7    4    5 1    
     8    4   75 1    
     9    5    6 1    
    10    5   35 1    
    11    5   76 1    
    12    6    7 1    
    13    6   77 1    
    14    6   78 1    
    15    7    8 1    
    16    8    9 1    
    17    8   79 1    
    18    8   80 1    
    19    9   10 ar   
    20    9   14 ar   
    21   10   11 ar   
    22   10   81 1    
    23   11   12 ar   
    24   11   71 1    
    25   12   13 ar   
    26   12   82 1    
    27   13   14 ar   
    28   13   15 1    
    29   14   83 1    
    30   15   16 1    
    31   15   84 1    
    32   15   85 1    
    33   16   17 1    
    34   17   18 1    
    35   17   86 1    
    36   17   87 1    
    37   18   19 1    
    38   18   37 1    
    39   18   88 1    
    40   19   20 am   BACKBONE|DICT|INTERRES
    41   19   89 1    
    42   20   21 2    
    43   20   22 1    
    44   22   23 1    
    45   22   24 1    
    46   22   90 1    
    47   23   91 1    
    48   23   92 1    
    49   23   93 1    
    50   24   25 am   BACKBONE|DICT|INTERRES
    51   24   94 1    
    52   25   26 2    
    53   25   27 1    
    54   27   28 1    
    55   27   29 1    
    56   27   95 1    
    57   28   96 1    
    58   28   97 1    
    59   28   98 1    
    60   29   30 am   BACKBONE|DICT|INTERRES
    61   29   99 1    
    62   30   31 2    
    63   30   32 1    
    64   32   33 1    
    65   32   34 1    
    66   32  100 1    
    67   33  101 1    
    68   33  102 1    
    69   33  103 1    
    70   34   35 am   BACKBONE|DICT|INTERRES
    71   34  104 1    
    72   35   36 2    
    73   37   38 2    
    74   37   39 am   BACKBONE|DICT|INTERRES
    75   39   40 1    
    76   39  105 1    
    77   40   41 1    
    78   40   42 1    
    79   40  106 1    
    80   41  107 1    
    81   41  108 1    
    82   41  109 1    
    83   42   43 2    
    84   42   44 am   BACKBONE|DICT|INTERRES
    85   44   45 1    
    86   44  110 1    
    87   45   46 1    
    88   45   47 1    
    89   45  111 1    
    90   46  112 1    
    91   46  113 1    
    92   46  114 1    
    93   47   48 2    
    94   47   49 am   BACKBONE|DICT|INTERRES
    95   49   50 1    
    96   49  115 1    
    97   50   51 1    
    98   50   52 1    
    99   50  116 1    
   100   51  117 1    
   101   51  118 1    
   102   51  119 1    
   103   52   53 2    
   104   52   54 am   BACKBONE|DICT|INTERRES
   105   54   55 1    
   106   54  120 1    
   107   55   56 1    
   108   55   57 1    
   109   55  121 1    
   110   56  122 1    
   111   56  123 1    
   112   56  124 1    
   113   57   58 2    
   114   57   59 am   BACKBONE|DICT|INTERRES
   115   59   60 1    
   116   59  125 1    
   117   60   61 1    
   118   60   62 1    
   119   60  126 1    
   120   61  127 1    
   121   61  128 1    
   122   61  129 1    
   123   62   63 2    
   124   62   64 am   BACKBONE|DICT|INTERRES
   125   64   65 1    
   126   64  130 1    
   127   65   66 1    
   128   65   69 1    
   129   65  131 1    
   130   66   67 am   BACKBONE|DICT|INTERRES
   131   66   68 2    
   132   67  132 1    
   133   67  133 1    
   134   69   70 1    
   135   69  134 1    
   136   69  135 1    
   137   70   71 1    
   138   71  136 1    
   139   71  137 1    
@<TRIPOS>SUBSTRUCTURE
     1 UNK         1 GROUP             0       ****    0 ROOT    
