@<TRIPOS>MOLECULE
3R137
137   139    1
SMALL
USER_CHARGES


@<TRIPOS>ATOM
      1 CA         27.6207   -6.0337    0.9412 C.3       0 UNK        -0.2020 
      2 C          27.6619   -4.5130    0.9477 C.2       0 UNK         0.4855 
      3 O          27.0727   -3.8884    1.8301 O.2       0 UNK        -0.5197 
      4 N          28.3564   -3.9146   -0.0289 N.am      1 UNK        -0.4892 
      5 CA         28.4946   -2.4605   -0.1919 C.3       1 UNK         0.0835 
      6 C6         29.6421   -2.0934   -1.1642 C.3       12 UNK        -0.0855 
      7 S7         31.2909   -2.5619   -0.5251 S.3       12 UNK        -0.2931 
      8 C8         31.6007   -4.2089   -1.2501 C.3       12 UNK         0.0378 
      9 C9         31.7123   -4.1613   -2.7661 C.ar      12 UNK        -0.0802 
     10 C10        32.9016   -3.7492   -3.3741 C.ar      12 UNK        -0.0944 
     11 C11        32.9917   -3.6627   -4.7668 C.ar      12 UNK        -0.0787 
     12 C12        31.8839   -3.9992   -5.5515 C.ar      12 UNK        -0.0862 
     13 C13        30.6903   -4.4144   -4.9540 C.ar      12 UNK        -0.0733 
     14 C14        30.6210   -4.5184   -3.5622 C.ar      12 UNK        -0.0832 
     15 C15        29.4676   -4.7206   -5.8115 C.3       12 UNK         0.0240 
     16 S16        27.9935   -3.7795   -5.2874 S.3       12 UNK        -0.2522 
     17 C17        28.5588   -2.0525   -5.4671 C.3       12 UNK        -0.0967 
     18 CA         27.8332   -1.3034   -6.6078 C.3       5 UNK         0.0660 
     19 N          26.3757   -1.3100   -6.4628 N.am      5 UNK        -0.4015 
     20 C          25.5180   -1.0017   -7.4463 C.2       4 UNK         0.4946 
     21 O          25.8685   -0.7004   -8.5868 O.2       4 UNK        -0.5353 
     22 CA         24.0197   -0.9807   -7.0960 C.3       4 UNK         0.0277 
     23 CB         23.4141   -2.3849   -7.2468 C.3       4 UNK        -0.1981 
     24 N          23.7523   -0.4725   -5.7489 N.am      4 UNK        -0.4209 
     25 C          24.0578    0.7628   -5.3256 C.2       3 UNK         0.4942 
     26 O          24.5189    1.6380   -6.0563 O.2       3 UNK        -0.5208 
     27 CA         23.8781    1.0560   -3.8252 C.3       3 UNK         0.0250 
     28 CB         22.5063    1.6975   -3.5647 C.3       3 UNK        -0.1990 
     29 N          24.0426   -0.1205   -2.9611 N.am      3 UNK        -0.4232 
     30 C          25.1506   -0.8722   -2.8867 C.2       2 UNK         0.4993 
     31 O          26.1581   -0.6751   -3.5704 O.2       2 UNK        -0.5286 
     32 CA         25.0774   -2.0960   -1.9586 C.3       2 UNK         0.0209 
     33 CB         24.4381   -3.2811   -2.7024 C.3       2 UNK        -0.1931 
     34 N          26.3873   -2.5152   -1.4565 N.am      2 UNK        -0.4546 
     35 C          27.1702   -1.8009   -0.6344 C.2       1 UNK         0.5154 
     36 O          26.8719   -0.6875   -0.1985 O.2       1 UNK        -0.5181 
     37 C          28.3674    0.1337   -6.7279 C.2       5 UNK         0.5014 
     38 O          29.2871    0.3696   -7.5108 O.2       5 UNK        -0.5248 
     39 N          27.7757    1.0752   -5.9805 N.am      6 UNK        -0.4434 
     40 CA         28.0903    2.5019   -6.0759 C.3       6 UNK         0.0363 
     41 CB         27.4584    3.2556   -4.8954 C.3       6 UNK        -0.1936 
     42 C          27.6502    3.1069   -7.4199 C.2       6 UNK         0.5081 
     43 O          28.3742    3.9317   -7.9756 O.2       6 UNK        -0.5248 
     44 N          26.4845    2.6794   -7.9212 N.am      7 UNK        -0.4718 
     45 CA         25.9208    3.1126   -9.1973 C.3       7 UNK         0.0273 
     46 CB         24.4248    2.7583   -9.2452 C.3       7 UNK        -0.1935 
     47 C          26.6628    2.5333  -10.4129 C.2       7 UNK         0.5018 
     48 O          27.1022    3.3030  -11.2682 O.2       7 UNK        -0.5186 
     49 N          26.7512    1.1979  -10.4961 N.am      8 UNK        -0.4240 
     50 CA         27.2360    0.4938  -11.6853 C.3       8 UNK         0.0235 
     51 CB         26.5397   -0.8732  -11.8026 C.3       8 UNK        -0.2000 
     52 C          28.7603    0.3284  -11.7025 C.2       8 UNK         0.4941 
     53 O          29.3912    0.6697  -12.7037 O.2       8 UNK        -0.5273 
     54 N          29.3235   -0.2196  -10.6172 N.am      9 UNK        -0.4262 
     55 CA         30.7460   -0.5696  -10.5303 C.3       9 UNK         0.0264 
     56 CB         30.9203   -1.7723   -9.5839 C.3       9 UNK        -0.1955 
     57 C          31.6394    0.6014  -10.0878 C.2       9 UNK         0.5031 
     58 O          32.8549    0.5159  -10.2682 O.2       9 UNK        -0.5390 
     59 N          31.0355    1.6435   -9.4944 N.am      10 UNK        -0.4204 
     60 CA         31.6806    2.7619   -8.7928 C.3       10 UNK         0.0237 
     61 CB         32.4866    3.6485   -9.7664 C.3       10 UNK        -0.1985 
     62 C          32.5021    2.2683   -7.5849 C.2       10 UNK         0.4970 
     63 O          33.6271    2.7236   -7.3693 O.2       10 UNK        -0.4914 
     64 N          31.9238    1.3166   -6.8449 N.am      11 UNK        -0.4285 
     65 CA         32.5565    0.5687   -5.7571 C.3       11 UNK         0.1007 
     66 C          31.5641    0.3905   -4.5728 C.2       11 UNK         0.5703 
     67 N          31.6100   -0.7167   -3.8479 N.am      11 UNK        -0.7361 
     68 O          30.7730    1.2804   -4.2705 O.2       11 UNK        -0.4986 
     69 C69        33.1991   -0.7349   -6.3132 C.3       12 UNK        -0.0947 
     70 S70        34.5273   -1.3977   -5.2518 S.3       12 UNK        -0.2240 
     71 C71        34.2832   -3.1945   -5.4215 C.3       12 UNK         0.0194 
     72 H72        28.0352   -6.4237    1.8705 H         1 UNK         0.0906 
     73 H73        26.5912   -6.3804    0.8557 H         1 UNK         0.0906 
     74 H74        28.1902   -6.4557    0.1134 H         1 UNK         0.0906 
     75 H75        28.8308   -4.4810   -0.7147 H         1 UNK         0.3140 
     76 H76        28.7373   -2.0400    0.7871 H         1 UNK         0.1085 
     77 H77        29.4720   -2.5221   -2.1516 H         1 UNK         0.0836 
     78 H78        29.6648   -1.0120   -1.3153 H         1 UNK         0.0836 
     79 H79        32.5302   -4.6008   -0.8343 H         1 UNK         0.0731 
     80 H80        30.8212   -4.9049   -0.9398 H         1 UNK         0.0731 
     81 H81        33.7505   -3.4744   -2.7623 H         1 UNK         0.1312 
     82 H82        31.9467   -3.9218   -6.6285 H         1 UNK         0.1406 
     83 H83        29.6981   -4.8417   -3.1015 H         1 UNK         0.1631 
     84 H84        29.2480   -5.7870   -5.7488 H         1 UNK         0.0717 
     85 H85        29.6635   -4.5045   -6.8630 H         1 UNK         0.0717 
     86 H86        28.4110   -1.5491   -4.5103 H         1 UNK         0.0934 
     87 H87        29.6356   -2.0353   -5.6419 H         1 UNK         0.0934 
     88 H88        28.0732   -1.8141   -7.5431 H         1 UNK         0.0739 
     89 H89        26.0289   -1.4772   -5.5262 H         1 UNK         0.3093 
     90 H90        23.5245   -0.3154   -7.8062 H         1 UNK         0.0818 
     91 H91        22.3361   -2.3723   -7.0852 H         1 UNK         0.0819 
     92 H92        23.5844   -2.7757   -8.2512 H         1 UNK         0.0819 
     93 H93        23.8523   -3.0939   -6.5430 H         1 UNK         0.0819 
     94 H94        23.3633   -1.1227   -5.0823 H         1 UNK         0.3041 
     95 H95        24.6504    1.7751   -3.5442 H         1 UNK         0.0784 
     96 H96        22.3697    2.5885   -4.1796 H         1 UNK         0.0793 
     97 H97        21.6886    1.0137   -3.7961 H         1 UNK         0.0793 
     98 H98        22.4029    2.0068   -2.5244 H         1 UNK         0.0793 
     99 H99        23.2519   -0.3616   -2.3801 H         1 UNK         0.3024 
    100 H100       24.4588   -1.8393   -1.0956 H         1 UNK         0.1171 
    101 H101       23.4377   -3.0325   -3.0590 H         1 UNK         0.0786 
    102 H102       24.3379   -4.1504   -2.0519 H         1 UNK         0.0786 
    103 H103       25.0296   -3.5786   -3.5699 H         1 UNK         0.0786 
    104 H104       26.7241   -3.4131   -1.7690 H         1 UNK         0.2977 
    105 H105       27.0391    0.8018   -5.3434 H         1 UNK         0.3127 
    106 H106       29.1740    2.6142   -6.0046 H         1 UNK         0.0770 
    107 H107       26.3701    3.1970   -4.9094 H         1 UNK         0.0814 
    108 H108       27.7271    4.3123   -4.9227 H         1 UNK         0.0814 
    109 H109       27.8059    2.8575   -3.9417 H         1 UNK         0.0814 
    110 H110       25.9109    2.0619   -7.3532 H         1 UNK         0.2983 
    111 H111       26.0057    4.2005   -9.2498 H         1 UNK         0.0947 
    112 H112       23.9757    3.0814  -10.1853 H         1 UNK         0.0806 
    113 H113       23.8776    3.2477   -8.4391 H         1 UNK         0.0806 
    114 H114       24.2578    1.6847   -9.1544 H         1 UNK         0.0806 
    115 H115       26.3806    0.6203   -9.7421 H         1 UNK         0.3000 
    116 H116       26.9593    1.0710  -12.5709 H         1 UNK         0.0850 
    117 H117       26.8463   -1.3893  -12.7133 H         1 UNK         0.0810 
    118 H118       25.4559   -0.7626  -11.8421 H         1 UNK         0.0810 
    119 H119       26.7764   -1.5279  -10.9633 H         1 UNK         0.0810 
    120 H120       28.7454   -0.4374   -9.8172 H         1 UNK         0.3040 
    121 H121       31.0931   -0.8796  -11.5186 H         1 UNK         0.0766 
    122 H122       31.9617   -2.0961   -9.5571 H         1 UNK         0.0812 
    123 H123       30.3266   -2.6255   -9.9121 H         1 UNK         0.0812 
    124 H124       30.6333   -1.5378   -8.5597 H         1 UNK         0.0812 
    125 H125       30.0383    1.5579   -9.3459 H         1 UNK         0.3205 
    126 H126       30.8789    3.3745   -8.3818 H         1 UNK         0.0754 
    127 H127       32.8541    4.5436   -9.2632 H         1 UNK         0.0769 
    128 H128       31.8705    3.9774  -10.6032 H         1 UNK         0.0769 
    129 H129       33.3535    3.1264  -10.1722 H         1 UNK         0.0769 
    130 H130       30.9756    1.0249   -7.0725 H         1 UNK         0.2981 
    131 H131       33.3553    1.1884   -5.3463 H         1 UNK         0.0541 
    132 H132       32.2713   -1.4478   -4.0673 H         1 UNK         0.3459 
    133 H133       31.0007   -0.8119   -3.0538 H         1 UNK         0.3459 
    134 H134       33.6589   -0.5397   -7.2836 H         1 UNK         0.0612 
    135 H135       32.4314   -1.4842   -6.5033 H         1 UNK         0.0612 
    136 H136       34.3039   -3.4617   -6.4793 H         1 UNK         0.0624 
    137 H137       35.1275   -3.7084   -4.9598 H         1 UNK         0.0624 
@<TRIPOS>BOND
     1    1    2 1    
     2    1   72 1    
     3    1   73 1    
     4    1   74 1    
     5    2    3 2    
     6    2    4 am   BACKBONE|DICT|INTERRES
     7    4    5 1    
     8    4   75 1    
     9    5    6 1    
    10    5   35 1    
    11    5   76 1    
    12    6    7 1    
    13    6   77 1    
    14    6   78 1    
    15    7    8 1    
    16    8    9 1    
    17    8   79 1    
    18    8   80 1    
    19    9   10 ar   
    20    9   14 ar   
    21   10   11 ar   
    22   10   81 1    
    23   11   12 ar   
    24   11   71 1    
    25   12   13 ar   
    26   12   82 1    
    27   13   14 ar   
    28   13   15 1    
    29   14   83 1    
    30   15   16 1    
    31   15   84 1    
    32   15   85 1    
    33   16   17 1    
    34   17   18 1    
    35   17   86 1    
    36   17   87 1    
    37   18   19 1    
    38   18   37 1    
    39   18   88 1    
    40   19   20 am   BACKBONE|DICT|INTERRES
    41   19   89 1    
    42   20   21 2    
    43   20   22 1    
    44   22   23 1    
    45   22   24 1    
    46   22   90 1    
    47   23   91 1    
    48   23   92 1    
    49   23   93 1    
    50   24   25 am   BACKBONE|DICT|INTERRES
    51   24   94 1    
    52   25   26 2    
    53   25   27 1    
    54   27   28 1    
    55   27   29 1    
    56   27   95 1    
    57   28   96 1    
    58   28   97 1    
    59   28   98 1    
    60   29   30 am   BACKBONE|DICT|INTERRES
    61   29   99 1    
    62   30   31 2    
    63   30   32 1    
    64   32   33 1    
    65   32   34 1    
    66   32  100 1    
    67   33  101 1    
    68   33  102 1    
    69   33  103 1    
    70   34   35 am   BACKBONE|DICT|INTERRES
    71   34  104 1    
    72   35   36 2    
    73   37   38 2    
    74   37   39 am   BACKBONE|DICT|INTERRES
    75   39   40 1    
    76   39  105 1    
    77   40   41 1    
    78   40   42 1    
    79   40  106 1    
    80   41  107 1    
    81   41  108 1    
    82   41  109 1    
    83   42   43 2    
    84   42   44 am   BACKBONE|DICT|INTERRES
    85   44   45 1    
    86   44  110 1    
    87   45   46 1    
    88   45   47 1    
    89   45  111 1    
    90   46  112 1    
    91   46  113 1    
    92   46  114 1    
    93   47   48 2    
    94   47   49 am   BACKBONE|DICT|INTERRES
    95   49   50 1    
    96   49  115 1    
    97   50   51 1    
    98   50   52 1    
    99   50  116 1    
   100   51  117 1    
   101   51  118 1    
   102   51  119 1    
   103   52   53 2    
   104   52   54 am   BACKBONE|DICT|INTERRES
   105   54   55 1    
   106   54  120 1    
   107   55   56 1    
   108   55   57 1    
   109   55  121 1    
   110   56  122 1    
   111   56  123 1    
   112   56  124 1    
   113   57   58 2    
   114   57   59 am   BACKBONE|DICT|INTERRES
   115   59   60 1    
   116   59  125 1    
   117   60   61 1    
   118   60   62 1    
   119   60  126 1    
   120   61  127 1    
   121   61  128 1    
   122   61  129 1    
   123   62   63 2    
   124   62   64 am   BACKBONE|DICT|INTERRES
   125   64   65 1    
   126   64  130 1    
   127   65   66 1    
   128   65   69 1    
   129   65  131 1    
   130   66   67 am   BACKBONE|DICT|INTERRES
   131   66   68 2    
   132   67  132 1    
   133   67  133 1    
   134   69   70 1    
   135   69  134 1    
   136   69  135 1    
   137   70   71 1    
   138   71  136 1    
   139   71  137 1    
@<TRIPOS>SUBSTRUCTURE
     1 UNK         1 GROUP             0       ****    0 ROOT    
