@<TRIPOS>MOLECULE
3R137
137   139    1
SMALL
USER_CHARGES


@<TRIPOS>ATOM
      1 CA         26.7541   -2.2646    3.1454 C.3       0 UNK        -0.2020 
      2 C          27.0732   -3.1078    1.9139 C.2       0 UNK         0.4855 
      3 O          26.5431   -4.2086    1.7812 O.2       0 UNK        -0.5197 
      4 N          27.9265   -2.6472    0.9882 N.am      1 UNK        -0.4892 
      5 CA         28.6138   -1.3466    0.9780 C.3       1 UNK         0.0835 
      6 C6         29.9203   -1.4180    0.1448 C.3       12 UNK        -0.0855 
      7 S7         29.6595   -1.6829   -1.6456 S.3       12 UNK        -0.2931 
      8 C8         30.2850   -3.3696   -1.9009 C.3       12 UNK         0.0378 
      9 C9         30.3165   -3.7090   -3.3845 C.ar      12 UNK        -0.0802 
     10 C10        31.4158   -3.3312   -4.1601 C.ar      12 UNK        -0.0944 
     11 C11        31.4669   -3.6379   -5.5227 C.ar      12 UNK        -0.0787 
     12 C12        30.4020   -4.3293   -6.1127 C.ar      12 UNK        -0.0862 
     13 C13        29.3033   -4.7306   -5.3439 C.ar      12 UNK        -0.0733 
     14 C14        29.2622   -4.4078   -3.9823 C.ar      12 UNK        -0.0832 
     15 C15        28.1962   -5.5813   -5.9549 C.3       12 UNK         0.0240 
     16 S16        26.6981   -4.6223   -6.3449 S.3       12 UNK        -0.2522 
     17 C17        26.8875   -4.2785   -8.1337 C.3       12 UNK        -0.0967 
     18 CA         26.5972   -2.8086   -8.5346 C.3       5 UNK         0.0660 
     19 N          25.3217   -2.3182   -8.0016 N.am      5 UNK        -0.4015 
     20 C          24.7612   -1.1372   -8.3000 C.2       4 UNK         0.4946 
     21 O          25.2187   -0.3481   -9.1249 O.2       4 UNK        -0.5353 
     22 CA         23.5001   -0.7451   -7.5129 C.3       4 UNK         0.0277 
     23 CB         22.2409   -1.2916   -8.2040 C.3       4 UNK        -0.1981 
     24 N          23.5260   -1.1816   -6.1129 N.am      4 UNK        -0.4209 
     25 C          24.4195   -0.7710   -5.2026 C.2       3 UNK         0.4942 
     26 O          25.3400    0.0152   -5.4423 O.2       3 UNK        -0.5208 
     27 CA         24.2822   -1.3774   -3.8037 C.3       3 UNK         0.0250 
     28 CB         24.9042   -2.7861   -3.7552 C.3       3 UNK        -0.1990 
     29 N          24.9481   -0.5150   -2.8315 N.am      3 UNK        -0.4232 
     30 C          24.6663   -0.4843   -1.5253 C.2       2 UNK         0.4993 
     31 O          23.7887   -1.1702   -0.9967 O.2       2 UNK        -0.5286 
     32 CA         25.5622    0.3883   -0.6424 C.3       2 UNK         0.0209 
     33 CB         24.7637    1.1278    0.4507 C.3       2 UNK        -0.1931 
     34 N          26.5364   -0.5170   -0.0461 N.am      2 UNK        -0.4546 
     35 C          27.7019   -0.1825    0.5182 C.2       1 UNK         0.5154 
     36 O          28.0740    0.9809    0.6777 O.2       1 UNK        -0.5181 
     37 C          27.7688   -1.8792   -8.1719 C.2       5 UNK         0.5014 
     38 O          28.5453   -1.5099   -9.0531 O.2       5 UNK        -0.5248 
     39 N          27.8379   -1.4878   -6.8928 N.am      6 UNK        -0.4434 
     40 CA         28.8438   -0.5797   -6.3517 C.3       6 UNK         0.0363 
     41 CB         28.7227   -0.5316   -4.8246 C.3       6 UNK        -0.1936 
     42 C          28.7428    0.8280   -6.9480 C.2       6 UNK         0.5081 
     43 O          29.7737    1.4273   -7.2497 O.2       6 UNK        -0.5248 
     44 N          27.5084    1.3147   -7.1336 N.am      7 UNK        -0.4718 
     45 CA         27.2138    2.5856   -7.7939 C.3       7 UNK         0.0273 
     46 CB         25.7288    2.9339   -7.6050 C.3       7 UNK        -0.1935 
     47 C          27.5961    2.5766   -9.2839 C.2       7 UNK         0.5018 
     48 O          28.2417    3.5192   -9.7424 O.2       7 UNK        -0.5186 
     49 N          27.2102    1.5131  -10.0045 N.am      8 UNK        -0.4240 
     50 CA         27.4777    1.3328  -11.4337 C.3       8 UNK         0.0235 
     51 CB         26.6678    0.1409  -11.9695 C.3       8 UNK        -0.2000 
     52 C          28.9695    1.1598  -11.7570 C.2       8 UNK         0.4941 
     53 O          29.4609    1.7989  -12.6883 O.2       8 UNK        -0.5273 
     54 N          29.6636    0.3085  -10.9893 N.am      9 UNK        -0.4262 
     55 CA         31.0933    0.0320  -11.1599 C.3       9 UNK         0.0264 
     56 CB         31.4004   -1.3703  -10.6125 C.3       9 UNK        -0.1955 
     57 C          32.0104    1.0912  -10.5185 C.2       9 UNK         0.5031 
     58 O          33.2145    1.0601  -10.7777 O.2       9 UNK        -0.5390 
     59 N          31.4403    1.9974   -9.7086 N.am      10 UNK        -0.4204 
     60 CA         32.1032    3.0592   -8.9416 C.3       10 UNK         0.0237 
     61 CB         32.7333    4.1130   -9.8778 C.3       10 UNK        -0.1985 
     62 C          33.0907    2.4910   -7.9041 C.2       10 UNK         0.4970 
     63 O          34.2518    2.9027   -7.8561 O.2       10 UNK        -0.4914 
     64 N          32.6010    1.5414   -7.0986 N.am      11 UNK        -0.4285 
     65 CA         33.3623    0.8542   -6.0423 C.3       11 UNK         0.1007 
     66 C          33.6056    1.7120   -4.7666 C.2       11 UNK         0.5703 
     67 N          32.9347    2.8439   -4.5846 N.am      11 UNK        -0.7361 
     68 O          34.4280    1.3467   -3.9300 O.2       11 UNK        -0.4986 
     69 C69        32.7342   -0.5153   -5.6720 C.3       12 UNK        -0.0947 
     70 S70        32.5738   -1.6302   -7.1065 S.3       12 UNK        -0.2240 
     71 C71        32.7010   -3.2737   -6.3385 C.3       12 UNK         0.0194 
     72 H72        27.6497   -2.0918    3.7412 H         1 UNK         0.0906 
     73 H73        26.3223   -1.3042    2.8669 H         1 UNK         0.0906 
     74 H74        26.0312   -2.7771    3.7800 H         1 UNK         0.0906 
     75 H75        28.1169   -3.2271    0.1835 H         1 UNK         0.3140 
     76 H76        28.9116   -1.1089    2.0008 H         1 UNK         0.1085 
     77 H77        30.5679   -2.2022    0.5402 H         1 UNK         0.0836 
     78 H78        30.4868   -0.4923    0.2637 H         1 UNK         0.0836 
     79 H79        29.6603   -4.0800   -1.3578 H         1 UNK         0.0731 
     80 H80        31.2892   -3.4544   -1.4824 H         1 UNK         0.0731 
     81 H81        32.2370   -2.8017   -3.6972 H         1 UNK         0.1312 
     82 H82        30.4451   -4.5826   -7.1631 H         1 UNK         0.1406 
     83 H83        28.4141   -4.7152   -3.3853 H         1 UNK         0.1631 
     84 H84        27.9217   -6.3634   -5.2454 H         1 UNK         0.0717 
     85 H85        28.5532   -6.1058   -6.8423 H         1 UNK         0.0717 
     86 H86        27.8821   -4.5751   -8.4731 H         1 UNK         0.0934 
     87 H87        26.1965   -4.9358   -8.6637 H         1 UNK         0.0934 
     88 H88        26.5101   -2.7810   -9.6231 H         1 UNK         0.0739 
     89 H89        24.8804   -2.9028   -7.3073 H         1 UNK         0.3093 
     90 H90        23.4423    0.3454   -7.5150 H         1 UNK         0.0818 
     91 H91        21.3336   -0.9387   -7.7134 H         1 UNK         0.0819 
     92 H92        22.1931   -0.9616   -9.2430 H         1 UNK         0.0819 
     93 H93        22.2196   -2.3821   -8.2076 H         1 UNK         0.0819 
     94 H94        22.8055   -1.8301   -5.8282 H         1 UNK         0.3041 
     95 H95        23.2183   -1.4371   -3.5629 H         1 UNK         0.0784 
     96 H96        24.4427   -3.4503   -4.4866 H         1 UNK         0.0793 
     97 H97        25.9750   -2.7591   -3.9627 H         1 UNK         0.0793 
     98 H98        24.7687   -3.2473   -2.7769 H         1 UNK         0.0793 
     99 H99        25.6537    0.0937   -3.2276 H         1 UNK         0.3024 
    100 H100       26.0801    1.1222   -1.2642 H         1 UNK         0.1171 
    101 H101       25.4051    1.7855    1.0373 H         1 UNK         0.0786 
    102 H102       23.9832    1.7484    0.0088 H         1 UNK         0.0786 
    103 H103       24.2801    0.4337    1.1392 H         1 UNK         0.0786 
    104 H104       26.3230   -1.5012   -0.1433 H         1 UNK         0.2977 
    105 H105       27.1421   -1.8314   -6.2479 H         1 UNK         0.3127 
    106 H106       29.8203   -0.9889   -6.6095 H         1 UNK         0.0770 
    107 H107       27.7855   -0.0822   -4.4987 H         1 UNK         0.0814 
    108 H108       28.7756   -1.5335   -4.4028 H         1 UNK         0.0814 
    109 H109       29.5317    0.0521   -4.3846 H         1 UNK         0.0814 
    110 H110       26.7193    0.7675   -6.8044 H         1 UNK         0.2983 
    111 H111       27.8092    3.3597   -7.3046 H         1 UNK         0.0947 
    112 H112       25.4662    2.9896   -6.5483 H         1 UNK         0.0806 
    113 H113       25.0763    2.1959   -8.0718 H         1 UNK         0.0806 
    114 H114       25.4964    3.9024   -8.0498 H         1 UNK         0.0806 
    115 H115       26.6416    0.7967   -9.5562 H         1 UNK         0.3000 
    116 H116       27.1329    2.2323  -11.9485 H         1 UNK         0.0850 
    117 H117       26.8502   -0.0111  -13.0342 H         1 UNK         0.0810 
    118 H118       25.5970    0.3027  -11.8441 H         1 UNK         0.0810 
    119 H119       26.9266   -0.7860  -11.4559 H         1 UNK         0.0810 
    120 H120       29.1825   -0.2156  -10.2591 H         1 UNK         0.3040 
    121 H121       31.3222    0.0242  -12.2278 H         1 UNK         0.0766 
    122 H122       31.1357   -1.4515   -9.5596 H         1 UNK         0.0812 
    123 H123       32.4606   -1.6100  -10.7039 H         1 UNK         0.0812 
    124 H124       30.8451   -2.1366  -11.1532 H         1 UNK         0.0812 
    125 H125       30.4489    1.8994   -9.5315 H         1 UNK         0.3205 
    126 H126       31.3160    3.5577   -8.3737 H         1 UNK         0.0754 
    127 H127       33.1244    4.9561   -9.3070 H         1 UNK         0.0769 
    128 H128       31.9977    4.5090  -10.5780 H         1 UNK         0.0769 
    129 H129       33.5607    3.7022  -10.4570 H         1 UNK         0.0769 
    130 H130       31.6146    1.3040   -7.1773 H         1 UNK         0.2981 
    131 H131       34.3547    0.6487   -6.4481 H         1 UNK         0.0541 
    132 H132       33.1064    3.3923   -3.7569 H         1 UNK         0.3459 
    133 H133       32.2553    3.1487   -5.2625 H         1 UNK         0.3459 
    134 H134       31.7491   -0.3795   -5.2250 H         1 UNK         0.0612 
    135 H135       33.3474   -1.0138   -4.9196 H         1 UNK         0.0612 
    136 H136       33.5961   -3.3173   -5.7163 H         1 UNK         0.0624 
    137 H137       32.8485   -4.0117   -7.1282 H         1 UNK         0.0624 
@<TRIPOS>BOND
     1    1    2 1    
     2    1   72 1    
     3    1   73 1    
     4    1   74 1    
     5    2    3 2    
     6    2    4 am   BACKBONE|DICT|INTERRES
     7    4    5 1    
     8    4   75 1    
     9    5    6 1    
    10    5   35 1    
    11    5   76 1    
    12    6    7 1    
    13    6   77 1    
    14    6   78 1    
    15    7    8 1    
    16    8    9 1    
    17    8   79 1    
    18    8   80 1    
    19    9   10 ar   
    20    9   14 ar   
    21   10   11 ar   
    22   10   81 1    
    23   11   12 ar   
    24   11   71 1    
    25   12   13 ar   
    26   12   82 1    
    27   13   14 ar   
    28   13   15 1    
    29   14   83 1    
    30   15   16 1    
    31   15   84 1    
    32   15   85 1    
    33   16   17 1    
    34   17   18 1    
    35   17   86 1    
    36   17   87 1    
    37   18   19 1    
    38   18   37 1    
    39   18   88 1    
    40   19   20 am   BACKBONE|DICT|INTERRES
    41   19   89 1    
    42   20   21 2    
    43   20   22 1    
    44   22   23 1    
    45   22   24 1    
    46   22   90 1    
    47   23   91 1    
    48   23   92 1    
    49   23   93 1    
    50   24   25 am   BACKBONE|DICT|INTERRES
    51   24   94 1    
    52   25   26 2    
    53   25   27 1    
    54   27   28 1    
    55   27   29 1    
    56   27   95 1    
    57   28   96 1    
    58   28   97 1    
    59   28   98 1    
    60   29   30 am   BACKBONE|DICT|INTERRES
    61   29   99 1    
    62   30   31 2    
    63   30   32 1    
    64   32   33 1    
    65   32   34 1    
    66   32  100 1    
    67   33  101 1    
    68   33  102 1    
    69   33  103 1    
    70   34   35 am   BACKBONE|DICT|INTERRES
    71   34  104 1    
    72   35   36 2    
    73   37   38 2    
    74   37   39 am   BACKBONE|DICT|INTERRES
    75   39   40 1    
    76   39  105 1    
    77   40   41 1    
    78   40   42 1    
    79   40  106 1    
    80   41  107 1    
    81   41  108 1    
    82   41  109 1    
    83   42   43 2    
    84   42   44 am   BACKBONE|DICT|INTERRES
    85   44   45 1    
    86   44  110 1    
    87   45   46 1    
    88   45   47 1    
    89   45  111 1    
    90   46  112 1    
    91   46  113 1    
    92   46  114 1    
    93   47   48 2    
    94   47   49 am   BACKBONE|DICT|INTERRES
    95   49   50 1    
    96   49  115 1    
    97   50   51 1    
    98   50   52 1    
    99   50  116 1    
   100   51  117 1    
   101   51  118 1    
   102   51  119 1    
   103   52   53 2    
   104   52   54 am   BACKBONE|DICT|INTERRES
   105   54   55 1    
   106   54  120 1    
   107   55   56 1    
   108   55   57 1    
   109   55  121 1    
   110   56  122 1    
   111   56  123 1    
   112   56  124 1    
   113   57   58 2    
   114   57   59 am   BACKBONE|DICT|INTERRES
   115   59   60 1    
   116   59  125 1    
   117   60   61 1    
   118   60   62 1    
   119   60  126 1    
   120   61  127 1    
   121   61  128 1    
   122   61  129 1    
   123   62   63 2    
   124   62   64 am   BACKBONE|DICT|INTERRES
   125   64   65 1    
   126   64  130 1    
   127   65   66 1    
   128   65   69 1    
   129   65  131 1    
   130   66   67 am   BACKBONE|DICT|INTERRES
   131   66   68 2    
   132   67  132 1    
   133   67  133 1    
   134   69   70 1    
   135   69  134 1    
   136   69  135 1    
   137   70   71 1    
   138   71  136 1    
   139   71  137 1    
@<TRIPOS>SUBSTRUCTURE
     1 UNK         1 GROUP             0       ****    0 ROOT    
