@<TRIPOS>MOLECULE
3R137
137   139    1
SMALL
USER_CHARGES


@<TRIPOS>ATOM
      1 CA         28.0157   -5.6012    1.0989 C.3       0 UNK        -0.2020 
      2 C          27.8947   -4.0852    1.0624 C.2       0 UNK         0.4855 
      3 O          27.2767   -3.4981    1.9506 O.2       0 UNK        -0.5197 
      4 N          28.4827   -3.4481    0.0415 N.am      1 UNK        -0.4892 
      5 CA         28.4659   -1.9935   -0.1639 C.3       1 UNK         0.0835 
      6 C6         29.5049   -1.5436   -1.2189 C.3       12 UNK        -0.0855 
      7 S7         31.2341   -1.9423   -0.7822 S.3       12 UNK        -0.2931 
      8 C8         31.5371   -3.5471   -1.6014 C.3       12 UNK         0.0378 
      9 C9         31.1243   -3.5593   -3.0676 C.ar      12 UNK        -0.0802 
     10 C10        31.8421   -2.8189   -4.0101 C.ar      12 UNK        -0.0944 
     11 C11        31.4610   -2.8110   -5.3602 C.ar      12 UNK        -0.0787 
     12 C12        30.3471   -3.5648   -5.7514 C.ar      12 UNK        -0.0862 
     13 C13        29.6285   -4.3203   -4.8191 C.ar      12 UNK        -0.0733 
     14 C14        30.0230   -4.3130   -3.4801 C.ar      12 UNK        -0.0832 
     15 C15        28.4437   -5.1737   -5.2471 C.3       12 UNK         0.0240 
     16 S16        26.8985   -4.2122   -5.3117 S.3       12 UNK        -0.2522 
     17 C17        26.7246   -3.9100   -7.1048 C.3       12 UNK        -0.0967 
     18 CA         26.3882   -2.4544   -7.5067 C.3       5 UNK         0.0660 
     19 N          25.1528   -1.9507   -6.9018 N.am      5 UNK        -0.4015 
     20 C          24.1408   -1.4212   -7.6054 C.2       4 UNK         0.4946 
     21 O          24.1095   -1.3712   -8.8357 O.2       4 UNK        -0.5353 
     22 CA         22.9561   -0.8298   -6.8210 C.3       4 UNK         0.0277 
     23 CB         21.8833   -1.9048   -6.5822 C.3       4 UNK        -0.1981 
     24 N          23.3192   -0.2175   -5.5421 N.am      4 UNK        -0.4209 
     25 C          24.1934    0.7853   -5.3733 C.2       3 UNK         0.4942 
     26 O          24.8228    1.3183   -6.2863 O.2       3 UNK        -0.5208 
     27 CA         24.4471    1.2352   -3.9252 C.3       3 UNK         0.0250 
     28 CB         23.4548    2.3390   -3.5267 C.3       3 UNK        -0.1990 
     29 N          24.3987    0.1502   -2.9360 N.am      3 UNK        -0.4232 
     30 C          25.1293   -0.9731   -2.9809 C.2       2 UNK         0.4993 
     31 O          25.8782   -1.2708   -3.9152 O.2       2 UNK        -0.5286 
     32 CA         24.9724   -1.9475   -1.8045 C.3       2 UNK         0.0209 
     33 CB         24.2416   -3.2229   -2.2547 C.3       2 UNK        -0.1931 
     34 N          26.2793   -2.3067   -1.2554 N.am      2 UNK        -0.4546 
     35 C          27.0692   -1.4716   -0.5639 C.2       1 UNK         0.5154 
     36 O          26.7372   -0.3288   -0.2442 O.2       1 UNK        -0.5181 
     37 C          27.5588   -1.4848   -7.2789 C.2       5 UNK         0.5014 
     38 O          28.3809   -1.3381   -8.1847 O.2       5 UNK        -0.5248 
     39 N          27.6148   -0.8137   -6.1174 N.am      6 UNK        -0.4434 
     40 CA         28.6833    0.1254   -5.7698 C.3       6 UNK         0.0363 
     41 CB         28.5503    0.5689   -4.3077 C.3       6 UNK        -0.1936 
     42 C          28.7576    1.3455   -6.6987 C.2       6 UNK         0.5081 
     43 O          29.8638    1.7695   -7.0302 O.2       6 UNK        -0.5248 
     44 N          27.6051    1.8793   -7.1269 N.am      7 UNK        -0.4718 
     45 CA         27.5484    2.9739   -8.0998 C.3       7 UNK         0.0273 
     46 CB         26.1765    3.6627   -8.0336 C.3       7 UNK        -0.1935 
     47 C          27.8421    2.4958   -9.5309 C.2       7 UNK         0.5018 
     48 O          28.4732    3.2285  -10.2921 O.2       7 UNK        -0.5186 
     49 N          27.3875    1.2802   -9.8680 N.am      8 UNK        -0.4240 
     50 CA         27.5345    0.6724  -11.1925 C.3       8 UNK         0.0235 
     51 CB         26.5923   -0.5357  -11.3175 C.3       8 UNK        -0.2000 
     52 C          28.9839    0.2693  -11.5023 C.2       8 UNK         0.4941 
     53 O          29.4804    0.5837  -12.5842 O.2       8 UNK        -0.5273 
     54 N          29.6393   -0.4002  -10.5445 N.am      9 UNK        -0.4262 
     55 CA         31.0372   -0.8327  -10.6399 C.3       9 UNK         0.0264 
     56 CB         31.1963   -2.1746   -9.9060 C.3       9 UNK        -0.1955 
     57 C          32.0413    0.2307  -10.1486 C.2       9 UNK         0.5031 
     58 O          33.2457   -0.0241  -10.1917 O.2       9 UNK        -0.5390 
     59 N          31.5400    1.4019   -9.7274 N.am      10 UNK        -0.4204 
     60 CA         32.2781    2.6069   -9.3306 C.3       10 UNK         0.0237 
     61 CB         33.0388    3.2045  -10.5343 C.3       10 UNK        -0.1985 
     62 C          33.1665    2.4193   -8.0845 C.2       10 UNK         0.4970 
     63 O          34.2791    2.9486   -8.0360 O.2       10 UNK        -0.4914 
     64 N          32.6385    1.7065   -7.0841 N.am      11 UNK        -0.4285 
     65 CA         33.1857    1.6618   -5.7195 C.3       11 UNK         0.1007 
     66 C          32.6680    2.8340   -4.8396 C.2       11 UNK         0.5703 
     67 N          31.5240    3.4357   -5.1490 N.am      11 UNK        -0.7361 
     68 O          33.3209    3.2086   -3.8687 O.2       11 UNK        -0.4986 
     69 C69        32.9165    0.3067   -5.0191 C.3       12 UNK        -0.0947 
     70 S70        33.6875   -1.0965   -5.8913 S.3       12 UNK        -0.2240 
     71 C71        32.2136   -2.0230   -6.4377 C.3       12 UNK         0.0194 
     72 H72        28.5943   -5.9869    0.2598 H         1 UNK         0.0906 
     73 H73        28.5052   -5.9158    2.0202 H         1 UNK         0.0906 
     74 H74        27.0265   -6.0570    1.0664 H         1 UNK         0.0906 
     75 H75        28.9973   -3.9781   -0.6438 H         1 UNK         0.3140 
     76 H76        28.7209   -1.5202    0.7872 H         1 UNK         0.1085 
     77 H77        29.4636   -0.4587   -1.3369 H         1 UNK         0.0836 
     78 H78        29.2563   -1.9496   -2.1990 H         1 UNK         0.0836 
     79 H79        31.0256   -4.3343   -1.0466 H         1 UNK         0.0731 
     80 H80        32.6011   -3.7778   -1.5302 H         1 UNK         0.0731 
     81 H81        32.6935   -2.2483   -3.6698 H         1 UNK         0.1312 
     82 H82        30.0414   -3.5693   -6.7889 H         1 UNK         0.1406 
     83 H83        29.4691   -4.9003   -2.7613 H         1 UNK         0.1631 
     84 H84        28.3027   -5.9920   -4.5393 H         1 UNK         0.0717 
     85 H85        28.6491   -5.6529   -6.2050 H         1 UNK         0.0717 
     86 H86        27.6265   -4.2299   -7.6295 H         1 UNK         0.0934 
     87 H87        25.9352   -4.5698   -7.4679 H         1 UNK         0.0934 
     88 H88        26.2619   -2.4857   -8.5904 H         1 UNK         0.0739 
     89 H89        25.1201   -1.9359   -5.8894 H         1 UNK         0.3093 
     90 H90        22.5205   -0.0433   -7.4409 H         1 UNK         0.0818 
     91 H91        20.9894   -1.4806   -6.1244 H         1 UNK         0.0819 
     92 H92        21.5751   -2.3640   -7.5227 H         1 UNK         0.0819 
     93 H93        22.2478   -2.7031   -5.9343 H         1 UNK         0.0819 
     94 H94        22.8665   -0.5877   -4.7194 H         1 UNK         0.3041 
     95 H95        25.4503    1.6609   -3.8905 H         1 UNK         0.0784 
     96 H96        23.4855    3.1663   -4.2376 H         1 UNK         0.0793 
     97 H97        22.4284    1.9709   -3.4992 H         1 UNK         0.0793 
     98 H98        23.6912    2.7509   -2.5453 H         1 UNK         0.0793 
     99 H99        23.8069    0.3088   -2.1329 H         1 UNK         0.3024 
    100 H100       24.3877   -1.4718   -1.0138 H         1 UNK         0.1171 
    101 H101       23.2534   -2.9881   -2.6523 H         1 UNK         0.0786 
    102 H102       24.7904   -3.7487   -3.0373 H         1 UNK         0.0786 
    103 H103       24.0998   -3.9136   -1.4233 H         1 UNK         0.0786 
    104 H104       26.6412   -3.2162   -1.4997 H         1 UNK         0.2977 
    105 H105       26.9322   -1.0102   -5.3868 H         1 UNK         0.3127 
    106 H106       29.6241   -0.4174   -5.8659 H         1 UNK         0.0770 
    107 H107       27.6617    1.1775   -4.1493 H         1 UNK         0.0814 
    108 H108       29.4127    1.1617   -3.9996 H         1 UNK         0.0814 
    109 H109       28.4880   -0.2898   -3.6424 H         1 UNK         0.0814 
    110 H110       26.7179    1.5072   -6.7971 H         1 UNK         0.2983 
    111 H111       28.3077    3.7136   -7.8348 H         1 UNK         0.0947 
    112 H112       26.1413    4.5251   -8.7005 H         1 UNK         0.0806 
    113 H113       25.9602    4.0209   -7.0269 H         1 UNK         0.0806 
    114 H114       25.3705    2.9899   -8.3292 H         1 UNK         0.0806 
    115 H115       26.9083    0.7381   -9.1640 H         1 UNK         0.3000 
    116 H116       27.2311    1.4136  -11.9353 H         1 UNK         0.0850 
    117 H117       26.8440   -1.3229  -10.6069 H         1 UNK         0.0810 
    118 H118       26.6478   -0.9705  -12.3163 H         1 UNK         0.0810 
    119 H119       25.5539   -0.2507  -11.1460 H         1 UNK         0.0810 
    120 H120       29.1471   -0.6482   -9.6857 H         1 UNK         0.3040 
    121 H121       31.2836   -1.0119  -11.6886 H         1 UNK         0.0766 
    122 H122       30.8109   -2.1257   -8.8907 H         1 UNK         0.0812 
    123 H123       32.2409   -2.4844   -9.8537 H         1 UNK         0.0812 
    124 H124       30.6517   -2.9658  -10.4213 H         1 UNK         0.0812 
    125 H125       30.5333    1.4881   -9.7069 H         1 UNK         0.3205 
    126 H126       31.5170    3.3326   -9.0392 H         1 UNK         0.0754 
    127 H127       33.4715    4.1736  -10.2829 H         1 UNK         0.0769 
    128 H128       32.3745    3.3594  -11.3847 H         1 UNK         0.0769 
    129 H129       33.8550    2.5584  -10.8590 H         1 UNK         0.0769 
    130 H130       31.6738    1.4037   -7.1823 H         1 UNK         0.2981 
    131 H131       34.2695    1.7808   -5.7761 H         1 UNK         0.0541 
    132 H132       30.9592    3.0929   -5.9161 H         1 UNK         0.3459 
    133 H133       31.1983    4.2009   -4.5807 H         1 UNK         0.3459 
    134 H134       31.8438    0.1369   -4.9126 H         1 UNK         0.0612 
    135 H135       33.3218    0.3145   -4.0055 H         1 UNK         0.0612 
    136 H136       32.5345   -2.7213   -7.2114 H         1 UNK         0.0624 
    137 H137       31.5299   -1.3194   -6.9124 H         1 UNK         0.0624 
@<TRIPOS>BOND
     1    1    2 1    
     2    1   72 1    
     3    1   73 1    
     4    1   74 1    
     5    2    3 2    
     6    2    4 am   BACKBONE|DICT|INTERRES
     7    4    5 1    
     8    4   75 1    
     9    5    6 1    
    10    5   35 1    
    11    5   76 1    
    12    6    7 1    
    13    6   77 1    
    14    6   78 1    
    15    7    8 1    
    16    8    9 1    
    17    8   79 1    
    18    8   80 1    
    19    9   10 ar   
    20    9   14 ar   
    21   10   11 ar   
    22   10   81 1    
    23   11   12 ar   
    24   11   71 1    
    25   12   13 ar   
    26   12   82 1    
    27   13   14 ar   
    28   13   15 1    
    29   14   83 1    
    30   15   16 1    
    31   15   84 1    
    32   15   85 1    
    33   16   17 1    
    34   17   18 1    
    35   17   86 1    
    36   17   87 1    
    37   18   19 1    
    38   18   37 1    
    39   18   88 1    
    40   19   20 am   BACKBONE|DICT|INTERRES
    41   19   89 1    
    42   20   21 2    
    43   20   22 1    
    44   22   23 1    
    45   22   24 1    
    46   22   90 1    
    47   23   91 1    
    48   23   92 1    
    49   23   93 1    
    50   24   25 am   BACKBONE|DICT|INTERRES
    51   24   94 1    
    52   25   26 2    
    53   25   27 1    
    54   27   28 1    
    55   27   29 1    
    56   27   95 1    
    57   28   96 1    
    58   28   97 1    
    59   28   98 1    
    60   29   30 am   BACKBONE|DICT|INTERRES
    61   29   99 1    
    62   30   31 2    
    63   30   32 1    
    64   32   33 1    
    65   32   34 1    
    66   32  100 1    
    67   33  101 1    
    68   33  102 1    
    69   33  103 1    
    70   34   35 am   BACKBONE|DICT|INTERRES
    71   34  104 1    
    72   35   36 2    
    73   37   38 2    
    74   37   39 am   BACKBONE|DICT|INTERRES
    75   39   40 1    
    76   39  105 1    
    77   40   41 1    
    78   40   42 1    
    79   40  106 1    
    80   41  107 1    
    81   41  108 1    
    82   41  109 1    
    83   42   43 2    
    84   42   44 am   BACKBONE|DICT|INTERRES
    85   44   45 1    
    86   44  110 1    
    87   45   46 1    
    88   45   47 1    
    89   45  111 1    
    90   46  112 1    
    91   46  113 1    
    92   46  114 1    
    93   47   48 2    
    94   47   49 am   BACKBONE|DICT|INTERRES
    95   49   50 1    
    96   49  115 1    
    97   50   51 1    
    98   50   52 1    
    99   50  116 1    
   100   51  117 1    
   101   51  118 1    
   102   51  119 1    
   103   52   53 2    
   104   52   54 am   BACKBONE|DICT|INTERRES
   105   54   55 1    
   106   54  120 1    
   107   55   56 1    
   108   55   57 1    
   109   55  121 1    
   110   56  122 1    
   111   56  123 1    
   112   56  124 1    
   113   57   58 2    
   114   57   59 am   BACKBONE|DICT|INTERRES
   115   59   60 1    
   116   59  125 1    
   117   60   61 1    
   118   60   62 1    
   119   60  126 1    
   120   61  127 1    
   121   61  128 1    
   122   61  129 1    
   123   62   63 2    
   124   62   64 am   BACKBONE|DICT|INTERRES
   125   64   65 1    
   126   64  130 1    
   127   65   66 1    
   128   65   69 1    
   129   65  131 1    
   130   66   67 am   BACKBONE|DICT|INTERRES
   131   66   68 2    
   132   67  132 1    
   133   67  133 1    
   134   69   70 1    
   135   69  134 1    
   136   69  135 1    
   137   70   71 1    
   138   71  136 1    
   139   71  137 1    
@<TRIPOS>SUBSTRUCTURE
     1 UNK         1 GROUP             0       ****    0 ROOT    
