@<TRIPOS>MOLECULE
3R137
137   139    1
SMALL
USER_CHARGES


@<TRIPOS>ATOM
      1 CA         27.0504   -6.8193   -2.1709 C.3       0 UNK        -0.2020 
      2 C          26.9563   -5.7707   -1.0728 C.2       0 UNK         0.4855 
      3 O          26.2568   -5.9805   -0.0820 O.2       0 UNK        -0.5197 
      4 N          27.6492   -4.6381   -1.2455 N.am      1 UNK        -0.4892 
      5 CA         27.6667   -3.5116   -0.3015 C.3       1 UNK         0.0835 
      6 C6         28.9564   -2.6697   -0.4576 C.3       12 UNK        -0.0855 
      7 S7         30.4675   -3.5384    0.1016 S.3       12 UNK        -0.2931 
      8 C8         31.0088   -4.5268   -1.3399 C.3       12 UNK         0.0378 
      9 C9         30.9150   -3.7857   -2.6680 C.ar      12 UNK        -0.0802 
     10 C10        31.5176   -2.5328   -2.8306 C.ar      12 UNK        -0.0944 
     11 C11        31.3782   -1.8257   -4.0282 C.ar      12 UNK        -0.0787 
     12 C12        30.6296   -2.3894   -5.0662 C.ar      12 UNK        -0.0862 
     13 C13        30.0689   -3.6630   -4.9398 C.ar      12 UNK        -0.0733 
     14 C14        30.2180   -4.3579   -3.7372 C.ar      12 UNK        -0.0832 
     15 C15        29.3452   -4.2994   -6.1210 C.3       12 UNK         0.0240 
     16 S16        27.6211   -4.7723   -5.7618 S.3       12 UNK        -0.2522 
     17 C17        26.8580   -3.2017   -5.2453 C.3       12 UNK        -0.0967 
     18 CA         26.5035   -2.2558   -6.4280 C.3       5 UNK         0.0660 
     19 N          25.2126   -1.5906   -6.2334 N.am      5 UNK        -0.4015 
     20 C          24.5605   -0.8789   -7.1653 C.2       4 UNK         0.4946 
     21 O          24.9410   -0.7595   -8.3295 O.2       4 UNK        -0.5353 
     22 CA         23.2836   -0.1462   -6.7145 C.3       4 UNK         0.0277 
     23 CB         22.0544   -1.0520   -6.8897 C.3       4 UNK        -0.1981 
     24 N          23.3503    0.3254   -5.3282 N.am      4 UNK        -0.4209 
     25 C          24.1951    1.2692   -4.8862 C.2       3 UNK         0.4942 
     26 O          24.9650    1.8922   -5.6142 O.2       3 UNK        -0.5208 
     27 CA         24.2346    1.5131   -3.3676 C.3       3 UNK         0.0250 
     28 CB         23.1829    2.5568   -2.9599 C.3       3 UNK        -0.1990 
     29 N          24.0521    0.2896   -2.5773 N.am      3 UNK        -0.4232 
     30 C          24.8602   -0.7780   -2.6340 C.2       2 UNK         0.4993 
     31 O          25.8501   -0.8494   -3.3689 O.2       2 UNK        -0.5286 
     32 CA         24.4394   -1.9967   -1.8009 C.3       2 UNK         0.0209 
     33 CB         23.4263   -2.8517   -2.5814 C.3       2 UNK        -0.1931 
     34 N          25.6002   -2.8231   -1.4729 N.am      2 UNK        -0.4546 
     35 C          26.4166   -2.6103   -0.4323 C.2       1 UNK         0.5154 
     36 O          26.2164   -1.7349    0.4120 O.2       1 UNK        -0.5181 
     37 C          27.6030   -1.2039   -6.6531 C.2       5 UNK         0.5014 
     38 O          28.3343   -1.2788   -7.6422 O.2       5 UNK        -0.5248 
     39 N          27.6648   -0.2194   -5.7441 N.am      6 UNK        -0.4434 
     40 CA         28.5919    0.9097   -5.8075 C.3       6 UNK         0.0363 
     41 CB         28.4761    1.7502   -4.5274 C.3       6 UNK        -0.1936 
     42 C          28.4008    1.7747   -7.0628 C.2       6 UNK         0.5081 
     43 O          29.3919    2.1463   -7.6857 O.2       6 UNK        -0.5248 
     44 N          27.1447    2.0421   -7.4455 N.am      7 UNK        -0.4718 
     45 CA         26.7929    2.7614   -8.6730 C.3       7 UNK         0.0273 
     46 CB         25.2816    3.0378   -8.6976 C.3       7 UNK        -0.1935 
     47 C          27.2286    2.0286   -9.9540 C.2       7 UNK         0.5018 
     48 O          27.6877    2.6830  -10.8907 O.2       7 UNK        -0.5186 
     49 N          27.0877    0.6954   -9.9720 N.am      8 UNK        -0.4240 
     50 CA         27.4982   -0.1588  -11.0867 C.3       8 UNK         0.0235 
     51 CB         26.8416   -1.5426  -10.9508 C.3       8 UNK        -0.2000 
     52 C          29.0253   -0.2888  -11.2046 C.2       8 UNK         0.4941 
     53 O          29.5602   -0.1317  -12.3030 O.2       8 UNK        -0.5273 
     54 N          29.6968   -0.5910  -10.0851 N.am      9 UNK        -0.4262 
     55 CA         31.1384   -0.8572  -10.0443 C.3       9 UNK         0.0264 
     56 CB         31.4415   -1.7492   -8.8341 C.3       9 UNK        -0.1955 
     57 C          32.0120    0.4075   -9.9864 C.2       9 UNK         0.5031 
     58 O          33.2133    0.3070  -10.2424 O.2       9 UNK        -0.5390 
     59 N          31.4286    1.5516   -9.6030 N.am      10 UNK        -0.4204 
     60 CA         32.0446    2.8595   -9.3370 C.3       10 UNK         0.0237 
     61 CB         32.8312    3.4018  -10.5472 C.3       10 UNK        -0.1985 
     62 C          32.8834    2.8876   -8.0463 C.2       10 UNK         0.4970 
     63 O          32.6967    3.7964   -7.2357 O.2       10 UNK        -0.4914 
     64 N          33.7674    1.8962   -7.8725 N.am      11 UNK        -0.4285 
     65 CA         34.6624    1.7059   -6.7181 C.3       11 UNK         0.1007 
     66 C          35.6414    2.9022   -6.4954 C.2       11 UNK         0.5703 
     67 N          36.1468    3.1131   -5.2866 N.am      11 UNK        -0.7361 
     68 O          36.0033    3.6132   -7.4321 O.2       11 UNK        -0.4986 
     69 C69        33.8910    1.2483   -5.4414 C.3       12 UNK        -0.0947 
     70 S70        33.0813   -0.3673   -5.6757 S.3       12 UNK        -0.2240 
     71 C71        32.0289   -0.4551   -4.1911 C.3       12 UNK         0.0194 
     72 H72        27.5387   -7.7164   -1.7916 H         1 UNK         0.0906 
     73 H73        26.0531   -7.0937   -2.5139 H         1 UNK         0.0906 
     74 H74        27.6144   -6.4628   -3.0321 H         1 UNK         0.0906 
     75 H75        28.2112   -4.5134   -2.0745 H         1 UNK         0.3140 
     76 H76        27.6461   -3.9107    0.7154 H         1 UNK         0.1085 
     77 H77        28.8939   -1.7682    0.1555 H         1 UNK         0.0836 
     78 H78        29.0639   -2.3089   -1.4810 H         1 UNK         0.0836 
     79 H79        32.0426   -4.8370   -1.1826 H         1 UNK         0.0731 
     80 H80        30.4195   -5.4446   -1.3664 H         1 UNK         0.0731 
     81 H81        32.0756   -2.1008   -2.0110 H         1 UNK         0.1312 
     82 H82        30.5060   -1.8419   -5.9865 H         1 UNK         0.1406 
     83 H83        29.7886   -5.3457   -3.6410 H         1 UNK         0.1631 
     84 H84        29.8920   -5.1947   -6.4196 H         1 UNK         0.0717 
     85 H85        29.3580   -3.6412   -6.9898 H         1 UNK         0.0717 
     86 H86        25.9485   -3.4886   -4.7170 H         1 UNK         0.0934 
     87 H87        27.4779   -2.7196   -4.4862 H         1 UNK         0.0934 
     88 H88        26.4168   -2.8450   -7.3437 H         1 UNK         0.0739 
     89 H89        24.8716   -1.5598   -5.2837 H         1 UNK         0.3093 
     90 H90        23.1593    0.7263   -7.3591 H         1 UNK         0.0818 
     91 H91        21.1323   -0.5199   -6.6549 H         1 UNK         0.0819 
     92 H92        21.9713   -1.3994   -7.9206 H         1 UNK         0.0819 
     93 H93        22.1055   -1.9353   -6.2517 H         1 UNK         0.0819 
     94 H94        22.7379   -0.1206   -4.6611 H         1 UNK         0.3041 
     95 H95        25.2224    1.9130   -3.1287 H         1 UNK         0.0784 
     96 H96        23.3135    3.4818   -3.5236 H         1 UNK         0.0793 
     97 H97        22.1673    2.2039   -3.1439 H         1 UNK         0.0793 
     98 H98        23.2646    2.8108   -1.9028 H         1 UNK         0.0793 
     99 H99        23.2529    0.2668   -1.9595 H         1 UNK         0.3024 
    100 H100       23.9711   -1.6494   -0.8767 H         1 UNK         0.1171 
    101 H101       22.5239   -2.2831   -2.8103 H         1 UNK         0.0786 
    102 H102       23.1165   -3.7216   -2.0016 H         1 UNK         0.0786 
    103 H103       23.8340   -3.2108   -3.5266 H         1 UNK         0.0786 
    104 H104       25.8530   -3.5433   -2.1317 H         1 UNK         0.2977 
    105 H105       27.0278   -0.2507   -4.9536 H         1 UNK         0.3127 
    106 H106       29.6006    0.4975   -5.8572 H         1 UNK         0.0770 
    107 H107       27.4808    2.1817   -4.4166 H         1 UNK         0.0814 
    108 H108       29.1908    2.5742   -4.5381 H         1 UNK         0.0814 
    109 H109       28.6830    1.1515   -3.6400 H         1 UNK         0.0814 
    110 H110       26.3761    1.7689   -6.8366 H         1 UNK         0.2983 
    111 H111       27.3142    3.7210   -8.6520 H         1 UNK         0.0947 
    112 H112       25.0013    3.5997   -9.5895 H         1 UNK         0.0806 
    113 H113       24.9714    3.6254   -7.8333 H         1 UNK         0.0806 
    114 H114       24.7041    2.1131   -8.6988 H         1 UNK         0.0806 
    115 H115       26.6616    0.2357   -9.1745 H         1 UNK         0.3000 
    116 H116       27.1332    0.2941  -12.0113 H         1 UNK         0.0850 
    117 H117       27.1340   -2.1976  -11.7726 H         1 UNK         0.0810 
    118 H118       25.7542   -1.4664  -10.9680 H         1 UNK         0.0810 
    119 H119       27.1242   -2.0372  -10.0207 H         1 UNK         0.0810 
    120 H120       29.1766   -0.7347   -9.2201 H         1 UNK         0.3040 
    121 H121       31.4185   -1.4070  -10.9455 H         1 UNK         0.0766 
    122 H122       32.4912   -2.0453   -8.8136 H         1 UNK         0.0812 
    123 H123       30.8431   -2.6602   -8.8435 H         1 UNK         0.0812 
    124 H124       31.2366   -1.2151   -7.9089 H         1 UNK         0.0812 
    125 H125       30.4612    1.4975   -9.2986 H         1 UNK         0.3205 
    126 H126       31.2057    3.5383   -9.1745 H         1 UNK         0.0754 
    127 H127       33.1582    4.4264  -10.3655 H         1 UNK         0.0769 
    128 H128       32.2158    3.4116  -11.4469 H         1 UNK         0.0769 
    129 H129       33.7248    2.8137  -10.7572 H         1 UNK         0.0769 
    130 H130       33.8487    1.2145   -8.6202 H         1 UNK         0.2981 
    131 H131       35.3199    0.8855   -7.0071 H         1 UNK         0.0541 
    132 H132       36.7968    3.8722   -5.1549 H         1 UNK         0.3459 
    133 H133       35.8892    2.5324   -4.5047 H         1 UNK         0.3459 
    134 H134       33.1453    1.9904   -5.1519 H         1 UNK         0.0612 
    135 H135       34.5643    1.1335   -4.5914 H         1 UNK         0.0612 
    136 H136       32.6408   -0.2193   -3.3190 H         1 UNK         0.0624 
    137 H137       31.2570    0.3122   -4.2434 H         1 UNK         0.0624 
@<TRIPOS>BOND
     1    1    2 1    
     2    1   72 1    
     3    1   73 1    
     4    1   74 1    
     5    2    3 2    
     6    2    4 am   BACKBONE|DICT|INTERRES
     7    4    5 1    
     8    4   75 1    
     9    5    6 1    
    10    5   35 1    
    11    5   76 1    
    12    6    7 1    
    13    6   77 1    
    14    6   78 1    
    15    7    8 1    
    16    8    9 1    
    17    8   79 1    
    18    8   80 1    
    19    9   10 ar   
    20    9   14 ar   
    21   10   11 ar   
    22   10   81 1    
    23   11   12 ar   
    24   11   71 1    
    25   12   13 ar   
    26   12   82 1    
    27   13   14 ar   
    28   13   15 1    
    29   14   83 1    
    30   15   16 1    
    31   15   84 1    
    32   15   85 1    
    33   16   17 1    
    34   17   18 1    
    35   17   86 1    
    36   17   87 1    
    37   18   19 1    
    38   18   37 1    
    39   18   88 1    
    40   19   20 am   BACKBONE|DICT|INTERRES
    41   19   89 1    
    42   20   21 2    
    43   20   22 1    
    44   22   23 1    
    45   22   24 1    
    46   22   90 1    
    47   23   91 1    
    48   23   92 1    
    49   23   93 1    
    50   24   25 am   BACKBONE|DICT|INTERRES
    51   24   94 1    
    52   25   26 2    
    53   25   27 1    
    54   27   28 1    
    55   27   29 1    
    56   27   95 1    
    57   28   96 1    
    58   28   97 1    
    59   28   98 1    
    60   29   30 am   BACKBONE|DICT|INTERRES
    61   29   99 1    
    62   30   31 2    
    63   30   32 1    
    64   32   33 1    
    65   32   34 1    
    66   32  100 1    
    67   33  101 1    
    68   33  102 1    
    69   33  103 1    
    70   34   35 am   BACKBONE|DICT|INTERRES
    71   34  104 1    
    72   35   36 2    
    73   37   38 2    
    74   37   39 am   BACKBONE|DICT|INTERRES
    75   39   40 1    
    76   39  105 1    
    77   40   41 1    
    78   40   42 1    
    79   40  106 1    
    80   41  107 1    
    81   41  108 1    
    82   41  109 1    
    83   42   43 2    
    84   42   44 am   BACKBONE|DICT|INTERRES
    85   44   45 1    
    86   44  110 1    
    87   45   46 1    
    88   45   47 1    
    89   45  111 1    
    90   46  112 1    
    91   46  113 1    
    92   46  114 1    
    93   47   48 2    
    94   47   49 am   BACKBONE|DICT|INTERRES
    95   49   50 1    
    96   49  115 1    
    97   50   51 1    
    98   50   52 1    
    99   50  116 1    
   100   51  117 1    
   101   51  118 1    
   102   51  119 1    
   103   52   53 2    
   104   52   54 am   BACKBONE|DICT|INTERRES
   105   54   55 1    
   106   54  120 1    
   107   55   56 1    
   108   55   57 1    
   109   55  121 1    
   110   56  122 1    
   111   56  123 1    
   112   56  124 1    
   113   57   58 2    
   114   57   59 am   BACKBONE|DICT|INTERRES
   115   59   60 1    
   116   59  125 1    
   117   60   61 1    
   118   60   62 1    
   119   60  126 1    
   120   61  127 1    
   121   61  128 1    
   122   61  129 1    
   123   62   63 2    
   124   62   64 am   BACKBONE|DICT|INTERRES
   125   64   65 1    
   126   64  130 1    
   127   65   66 1    
   128   65   69 1    
   129   65  131 1    
   130   66   67 am   BACKBONE|DICT|INTERRES
   131   66   68 2    
   132   67  132 1    
   133   67  133 1    
   134   69   70 1    
   135   69  134 1    
   136   69  135 1    
   137   70   71 1    
   138   71  136 1    
   139   71  137 1    
@<TRIPOS>SUBSTRUCTURE
     1 UNK         1 GROUP             0       ****    0 ROOT    
