@<TRIPOS>MOLECULE
3R137
137   139    1
SMALL
USER_CHARGES


@<TRIPOS>ATOM
      1 CA         26.5032   -6.4114    1.6305 C.3       0 UNK        -0.2020 
      2 C          26.8593   -5.3344    0.6171 C.2       0 UNK         0.4855 
      3 O          27.5499   -4.3733    0.9596 O.2       0 UNK        -0.5197 
      4 N          26.3937   -5.4807   -0.6302 N.am      1 UNK        -0.4892 
      5 CA         26.6000   -4.5252   -1.7221 C.3       1 UNK         0.0835 
      6 C6         26.5671   -5.2390   -3.1000 C.3       12 UNK        -0.0855 
      7 S7         27.3927   -4.2603   -4.3972 S.3       12 UNK        -0.2931 
      8 C8         29.1161   -4.8166   -4.2304 C.3       12 UNK         0.0378 
      9 C9         30.0673   -3.7011   -4.6283 C.ar      12 UNK        -0.0802 
     10 C10        30.7442   -3.7345   -5.8520 C.ar      12 UNK        -0.0944 
     11 C11        31.5993   -2.6883   -6.2149 C.ar      12 UNK        -0.0787 
     12 C12        31.7674   -1.6056   -5.3459 C.ar      12 UNK        -0.0862 
     13 C13        31.0926   -1.5617   -4.1240 C.ar      12 UNK        -0.0733 
     14 C14        30.2529   -2.6177   -3.7654 C.ar      12 UNK        -0.0832 
     15 C15        31.2531   -0.3633   -3.2023 C.3       12 UNK         0.0240 
     16 S16        30.3564    1.0893   -3.8331 S.3       12 UNK        -0.2522 
     17 C17        28.6169    0.5286   -3.7827 C.3       12 UNK        -0.0967 
     18 CA         28.0504    0.0537   -5.1475 C.3       5 UNK         0.0660 
     19 N          26.7143   -0.5343   -4.9859 N.am      5 UNK        -0.4015 
     20 C          25.9865   -1.0766   -5.9776 C.2       4 UNK         0.4946 
     21 O          26.4257   -1.2641   -7.1104 O.2       4 UNK        -0.5353 
     22 CA         24.4980   -1.3842   -5.7180 C.3       4 UNK         0.0277 
     23 CB         24.2152   -2.8934   -5.7358 C.3       4 UNK        -0.1981 
     24 N          23.9662   -0.7858   -4.4915 N.am      4 UNK        -0.4209 
     25 C          23.8250    0.5347   -4.2984 C.2       3 UNK         0.4942 
     26 O          24.0972    1.3768   -5.1554 O.2       3 UNK        -0.5208 
     27 CA         23.3659    1.0060   -2.9064 C.3       3 UNK         0.0250 
     28 CB         21.8507    1.2631   -2.9026 C.3       3 UNK        -0.1990 
     29 N          23.7062    0.0947   -1.8066 N.am      3 UNK        -0.4232 
     30 C          24.9414   -0.3197   -1.4880 C.2       2 UNK         0.4993 
     31 O          25.9489    0.0006   -2.1218 O.2       2 UNK        -0.5286 
     32 CA         25.0905   -1.2664   -0.2803 C.3       2 UNK         0.0209 
     33 CB         23.7553   -1.6666    0.3899 C.3       2 UNK        -0.1931 
     34 N          25.8673   -2.4633   -0.6242 N.am      2 UNK        -0.4546 
     35 C          25.5988   -3.3551   -1.5897 C.2       1 UNK         0.5154 
     36 O          24.5984   -3.3033   -2.3085 O.2       1 UNK        -0.5181 
     37 C          28.0554    1.1873   -6.2003 C.2       5 UNK         0.5014 
     38 O          28.9881    1.2652   -7.0023 O.2       5 UNK        -0.5248 
     39 N          26.9980    2.0162   -6.2127 N.am      6 UNK        -0.4434 
     40 CA         26.8116    3.0883   -7.1921 C.3       6 UNK         0.0363 
     41 CB         25.7094    4.0466   -6.7151 C.3       6 UNK        -0.1936 
     42 C          26.4949    2.5473   -8.5952 C.2       6 UNK         0.5081 
     43 O          27.0225    3.0724   -9.5747 O.2       6 UNK        -0.5248 
     44 N          25.6789    1.4852   -8.6713 N.am      7 UNK        -0.4718 
     45 CA         25.3541    0.7779   -9.9164 C.3       7 UNK         0.0273 
     46 CB         24.2017   -0.2093   -9.6710 C.3       7 UNK        -0.1935 
     47 C          26.5748    0.0586  -10.5175 C.2       7 UNK         0.5018 
     48 O          26.7486    0.0681  -11.7361 O.2       7 UNK        -0.5186 
     49 N          27.4222   -0.5022   -9.6448 N.am      8 UNK        -0.4240 
     50 CA         28.7176   -1.1010   -9.9718 C.3       8 UNK         0.0235 
     51 CB         29.0909   -2.0921   -8.8587 C.3       8 UNK        -0.2000 
     52 C          29.8422   -0.0668  -10.1992 C.2       8 UNK         0.4941 
     53 O          30.9774   -0.4721  -10.4526 O.2       8 UNK        -0.5273 
     54 N          29.5194    1.2333  -10.1136 N.am      9 UNK        -0.4262 
     55 CA         30.3716    2.3954  -10.3840 C.3       9 UNK         0.0264 
     56 CB         30.7764    2.4381  -11.8737 C.3       9 UNK        -0.1955 
     57 C          31.5733    2.5462   -9.4304 C.2       9 UNK         0.5031 
     58 O          32.6001    3.0878   -9.8453 O.2       9 UNK        -0.5390 
     59 N          31.4125    2.1080   -8.1708 N.am      10 UNK        -0.4204 
     60 CA         32.3565    2.2390   -7.0529 C.3       10 UNK         0.0237 
     61 CB         32.3573    3.6911   -6.5320 C.3       10 UNK        -0.1985 
     62 C          33.7710    1.7163   -7.3751 C.2       10 UNK         0.4970 
     63 O          34.7393    2.4777   -7.3324 O.2       10 UNK        -0.4914 
     64 N          33.8500    0.4221   -7.7086 N.am      11 UNK        -0.4285 
     65 CA         35.0761   -0.2971   -8.0974 C.3       11 UNK         0.1007 
     66 C          36.2390   -0.3205   -7.0568 C.2       11 UNK         0.5703 
     67 N          36.0074   -0.0144   -5.7855 N.am      11 UNK        -0.7361 
     68 O          37.3757   -0.6174   -7.4176 O.2       11 UNK        -0.4986 
     69 C69        34.7455   -1.7201   -8.6275 C.3       12 UNK        -0.0947 
     70 S70        34.1171   -2.8608   -7.3432 S.3       12 UNK        -0.2240 
     71 C71        32.3187   -2.7043   -7.5555 C.3       12 UNK         0.0194 
     72 H72        25.8978   -7.2032    1.1897 H         1 UNK         0.0906 
     73 H73        27.4101   -6.8622    2.0325 H         1 UNK         0.0906 
     74 H74        25.9431   -5.9767    2.4579 H         1 UNK         0.0906 
     75 H75        25.8017   -6.2707   -0.8472 H         1 UNK         0.3140 
     76 H76        27.6001   -4.1007   -1.6053 H         1 UNK         0.1085 
     77 H77        27.0712   -6.2052   -3.0388 H         1 UNK         0.0836 
     78 H78        25.5454   -5.4627   -3.4124 H         1 UNK         0.0836 
     79 H79        29.2713   -5.7054   -4.8438 H         1 UNK         0.0731 
     80 H80        29.3218   -5.1099   -3.1998 H         1 UNK         0.0731 
     81 H81        30.5969   -4.5683   -6.5247 H         1 UNK         0.1312 
     82 H82        32.4196   -0.7901   -5.6198 H         1 UNK         0.1406 
     83 H83        29.7204   -2.5877   -2.8246 H         1 UNK         0.1631 
     84 H84        32.3114   -0.1143   -3.1124 H         1 UNK         0.0717 
     85 H85        30.9062   -0.5941   -2.1938 H         1 UNK         0.0717 
     86 H86        28.5318   -0.2732   -3.0478 H         1 UNK         0.0934 
     87 H87        28.0130    1.3475   -3.3871 H         1 UNK         0.0934 
     88 H88        28.6945   -0.7408   -5.5291 H         1 UNK         0.0739 
     89 H89        26.2898   -0.4233   -4.0701 H         1 UNK         0.3093 
     90 H90        23.9477   -0.9443   -6.5521 H         1 UNK         0.0818 
     91 H91        24.6079   -3.3550   -6.6429 H         1 UNK         0.0819 
     92 H92        24.6740   -3.4011   -4.8902 H         1 UNK         0.0819 
     93 H93        23.1448   -3.0966   -5.7060 H         1 UNK         0.0819 
     94 H94        23.7697   -1.4165   -3.7245 H         1 UNK         0.3041 
     95 H95        23.8732    1.9526   -2.7085 H         1 UNK         0.0784 
     96 H96        21.5707    1.9583   -3.6956 H         1 UNK         0.0793 
     97 H97        21.2847    0.3441   -3.0603 H         1 UNK         0.0793 
     98 H98        21.5238    1.7031   -1.9602 H         1 UNK         0.0793 
     99 H99        22.9367   -0.2361   -1.2424 H         1 UNK         0.3024 
    100 H100       25.6787   -0.7160    0.4559 H         1 UNK         0.1171 
    101 H101       23.2177   -0.7930    0.7610 H         1 UNK         0.0786 
    102 H102       23.0948   -2.2044   -0.2915 H         1 UNK         0.0786 
    103 H103       23.9319   -2.3137    1.2493 H         1 UNK         0.0786 
    104 H104       26.6878   -2.6357   -0.0542 H         1 UNK         0.2977 
    105 H105       26.2361    1.8578   -5.5639 H         1 UNK         0.3127 
    106 H106       27.7451    3.6521   -7.2567 H         1 UNK         0.0770 
    107 H107       24.7423    3.5484   -6.6381 H         1 UNK         0.0814 
    108 H108       25.5912    4.8788   -7.4105 H         1 UNK         0.0814 
    109 H109       25.9468    4.4714   -5.7397 H         1 UNK         0.0814 
    110 H110       25.3036    1.1048   -7.8144 H         1 UNK         0.2983 
    111 H111       25.0178    1.5203  -10.6437 H         1 UNK         0.0947 
    112 H112       23.8958   -0.6852  -10.6036 H         1 UNK         0.0806 
    113 H113       23.3252    0.2939   -9.2623 H         1 UNK         0.0806 
    114 H114       24.4866   -1.0048   -8.9823 H         1 UNK         0.0806 
    115 H115       27.1462   -0.5414   -8.6648 H         1 UNK         0.3000 
    116 H116       28.6079   -1.6629  -10.9015 H         1 UNK         0.0850 
    117 H117       29.9654   -2.6759   -9.1420 H         1 UNK         0.0810 
    118 H118       28.2843   -2.7996   -8.6650 H         1 UNK         0.0810 
    119 H119       29.3159   -1.5800   -7.9220 H         1 UNK         0.0810 
    120 H120       28.5654    1.4605   -9.8615 H         1 UNK         0.3040 
    121 H121       29.7433    3.2672  -10.1965 H         1 UNK         0.0766 
    122 H122       31.4646    1.6315  -12.1283 H         1 UNK         0.0812 
    123 H123       31.2723    3.3779  -12.1196 H         1 UNK         0.0812 
    124 H124       29.9054    2.3550  -12.5238 H         1 UNK         0.0812 
    125 H125       30.5100    1.7015   -7.9203 H         1 UNK         0.3205 
    126 H126       31.9697    1.6074   -6.2533 H         1 UNK         0.0754 
    127 H127       32.9994    3.7923   -5.6562 H         1 UNK         0.0769 
    128 H128       31.3556    4.0030   -6.2354 H         1 UNK         0.0769 
    129 H129       32.7181    4.3917   -7.2860 H         1 UNK         0.0769 
    130 H130       32.9981   -0.1139   -7.7555 H         1 UNK         0.2981 
    131 H131       35.4751    0.2624   -8.9455 H         1 UNK         0.0541 
    132 H132       36.7708   -0.0312   -5.1282 H         1 UNK         0.3459 
    133 H133       35.0830    0.2388   -5.4803 H         1 UNK         0.3459 
    134 H134       35.6383   -2.1713   -9.0640 H         1 UNK         0.0612 
    135 H135       34.0260   -1.6602   -9.4460 H         1 UNK         0.0612 
    136 H136       32.0732   -1.7896   -8.0954 H         1 UNK         0.0624 
    137 H137       31.9730   -3.5315   -8.1768 H         1 UNK         0.0624 
@<TRIPOS>BOND
     1    1    2 1    
     2    1   72 1    
     3    1   73 1    
     4    1   74 1    
     5    2    3 2    
     6    2    4 am   BACKBONE|DICT|INTERRES
     7    4    5 1    
     8    4   75 1    
     9    5    6 1    
    10    5   35 1    
    11    5   76 1    
    12    6    7 1    
    13    6   77 1    
    14    6   78 1    
    15    7    8 1    
    16    8    9 1    
    17    8   79 1    
    18    8   80 1    
    19    9   10 ar   
    20    9   14 ar   
    21   10   11 ar   
    22   10   81 1    
    23   11   12 ar   
    24   11   71 1    
    25   12   13 ar   
    26   12   82 1    
    27   13   14 ar   
    28   13   15 1    
    29   14   83 1    
    30   15   16 1    
    31   15   84 1    
    32   15   85 1    
    33   16   17 1    
    34   17   18 1    
    35   17   86 1    
    36   17   87 1    
    37   18   19 1    
    38   18   37 1    
    39   18   88 1    
    40   19   20 am   BACKBONE|DICT|INTERRES
    41   19   89 1    
    42   20   21 2    
    43   20   22 1    
    44   22   23 1    
    45   22   24 1    
    46   22   90 1    
    47   23   91 1    
    48   23   92 1    
    49   23   93 1    
    50   24   25 am   BACKBONE|DICT|INTERRES
    51   24   94 1    
    52   25   26 2    
    53   25   27 1    
    54   27   28 1    
    55   27   29 1    
    56   27   95 1    
    57   28   96 1    
    58   28   97 1    
    59   28   98 1    
    60   29   30 am   BACKBONE|DICT|INTERRES
    61   29   99 1    
    62   30   31 2    
    63   30   32 1    
    64   32   33 1    
    65   32   34 1    
    66   32  100 1    
    67   33  101 1    
    68   33  102 1    
    69   33  103 1    
    70   34   35 am   BACKBONE|DICT|INTERRES
    71   34  104 1    
    72   35   36 2    
    73   37   38 2    
    74   37   39 am   BACKBONE|DICT|INTERRES
    75   39   40 1    
    76   39  105 1    
    77   40   41 1    
    78   40   42 1    
    79   40  106 1    
    80   41  107 1    
    81   41  108 1    
    82   41  109 1    
    83   42   43 2    
    84   42   44 am   BACKBONE|DICT|INTERRES
    85   44   45 1    
    86   44  110 1    
    87   45   46 1    
    88   45   47 1    
    89   45  111 1    
    90   46  112 1    
    91   46  113 1    
    92   46  114 1    
    93   47   48 2    
    94   47   49 am   BACKBONE|DICT|INTERRES
    95   49   50 1    
    96   49  115 1    
    97   50   51 1    
    98   50   52 1    
    99   50  116 1    
   100   51  117 1    
   101   51  118 1    
   102   51  119 1    
   103   52   53 2    
   104   52   54 am   BACKBONE|DICT|INTERRES
   105   54   55 1    
   106   54  120 1    
   107   55   56 1    
   108   55   57 1    
   109   55  121 1    
   110   56  122 1    
   111   56  123 1    
   112   56  124 1    
   113   57   58 2    
   114   57   59 am   BACKBONE|DICT|INTERRES
   115   59   60 1    
   116   59  125 1    
   117   60   61 1    
   118   60   62 1    
   119   60  126 1    
   120   61  127 1    
   121   61  128 1    
   122   61  129 1    
   123   62   63 2    
   124   62   64 am   BACKBONE|DICT|INTERRES
   125   64   65 1    
   126   64  130 1    
   127   65   66 1    
   128   65   69 1    
   129   65  131 1    
   130   66   67 am   BACKBONE|DICT|INTERRES
   131   66   68 2    
   132   67  132 1    
   133   67  133 1    
   134   69   70 1    
   135   69  134 1    
   136   69  135 1    
   137   70   71 1    
   138   71  136 1    
   139   71  137 1    
@<TRIPOS>SUBSTRUCTURE
     1 UNK         1 GROUP             0       ****    0 ROOT    
