@<TRIPOS>MOLECULE
3R137
137   139    1
SMALL
USER_CHARGES


@<TRIPOS>ATOM
      1 CA         29.5254   -4.0535   -4.1709 C.3       0 UNK        -0.2020 
      2 C          28.7006   -3.3014   -3.1431 C.2       0 UNK         0.4855 
      3 O          28.3707   -2.1387   -3.3620 O.2       0 UNK        -0.5197 
      4 N          28.3479   -3.9622   -2.0331 N.am      1 UNK        -0.4892 
      5 CA         27.6675   -3.4269   -0.8388 C.3       1 UNK         0.0835 
      6 C6         28.4728   -2.3081   -0.1264 C.3       12 UNK        -0.0855 
      7 S7         30.0586   -2.9427    0.5173 S.3       12 UNK        -0.2931 
      8 C8         31.1745   -1.5255    0.2674 C.3       12 UNK         0.0378 
      9 C9         31.7701   -1.4595   -1.1351 C.ar      12 UNK        -0.0802 
     10 C10        32.5716   -2.5024   -1.6126 C.ar      12 UNK        -0.0944 
     11 C11        33.2113   -2.4015   -2.8525 C.ar      12 UNK        -0.0787 
     12 C12        33.0498   -1.2413   -3.6142 C.ar      12 UNK        -0.0862 
     13 C13        32.2337   -0.2000   -3.1610 C.ar      12 UNK        -0.0733 
     14 C14        31.5918   -0.3180   -1.9234 C.ar      12 UNK        -0.0832 
     15 C15        32.0714    1.0677   -3.9920 C.3       12 UNK         0.0240 
     16 S16        31.3791    0.7330   -5.6414 S.3       12 UNK        -0.2522 
     17 C17        29.7804   -0.0224   -5.2033 C.3       12 UNK        -0.0967 
     18 CA         28.6232    0.4565   -6.1117 C.3       5 UNK         0.0660 
     19 N          27.6504   -0.6109   -6.3530 N.am      5 UNK        -0.4015 
     20 C          27.6287   -1.3595   -7.4635 C.2       4 UNK         0.4946 
     21 O          28.4876   -1.2963   -8.3420 O.2       4 UNK        -0.5353 
     22 CA         26.4444   -2.3269   -7.6686 C.3       4 UNK         0.0277 
     23 CB         26.8471   -3.7553   -7.2677 C.3       4 UNK        -0.1981 
     24 N          25.2128   -1.9682   -6.9594 N.am      4 UNK        -0.4209 
     25 C          24.5760   -0.7894   -7.0108 C.2       3 UNK         0.4942 
     26 O          24.9242    0.1504   -7.7241 O.2       3 UNK        -0.5208 
     27 CA         23.4078   -0.5839   -6.0283 C.3       3 UNK         0.0250 
     28 CB         22.0732   -0.9218   -6.7100 C.3       3 UNK        -0.1990 
     29 N          23.5176   -1.3357   -4.7683 N.am      3 UNK        -0.4232 
     30 C          24.5786   -1.3599   -3.9465 C.2       2 UNK         0.4993 
     31 O          25.6264   -0.7489   -4.1787 O.2       2 UNK        -0.5286 
     32 CA         24.4706   -2.2329   -2.6869 C.3       2 UNK         0.0209 
     33 CB         23.6227   -3.5076   -2.9016 C.3       2 UNK        -0.1931 
     34 N          25.8197   -2.5931   -2.2595 N.am      2 UNK        -0.4546 
     35 C          26.1891   -3.0214   -1.0501 C.2       1 UNK         0.5154 
     36 O          25.4003   -3.1384   -0.1104 O.2       1 UNK        -0.5181 
     37 C          27.9543    1.7497   -5.6024 C.2       5 UNK         0.5014 
     38 O          28.5229    2.8242   -5.7970 O.2       5 UNK        -0.5248 
     39 N          26.7702    1.6596   -4.9749 N.am      6 UNK        -0.4434 
     40 CA         26.0159    2.8198   -4.4913 C.3       6 UNK         0.0363 
     41 CB         24.9829    2.3689   -3.4460 C.3       6 UNK        -0.1936 
     42 C          25.3297    3.6181   -5.6145 C.2       6 UNK         0.5081 
     43 O          25.2043    4.8360   -5.4812 O.2       6 UNK        -0.5248 
     44 N          24.8892    2.9363   -6.6817 N.am      7 UNK        -0.4718 
     45 CA         24.2522    3.5489   -7.8526 C.3       7 UNK         0.0273 
     46 CB         22.9040    2.8637   -8.1351 C.3       7 UNK        -0.1935 
     47 C          25.1750    3.4752   -9.0773 C.2       7 UNK         0.5018 
     48 O          25.2897    4.4658   -9.8009 O.2       7 UNK        -0.5186 
     49 N          25.8216    2.3181   -9.2783 N.am      8 UNK        -0.4240 
     50 CA         26.8722    2.0973  -10.2725 C.3       8 UNK         0.0235 
     51 CB         26.7731    0.6536  -10.8026 C.3       8 UNK        -0.2000 
     52 C          28.2480    2.4792   -9.6862 C.2       8 UNK         0.4941 
     53 O          28.3664    3.5530   -9.0936 O.2       8 UNK        -0.5273 
     54 N          29.2732    1.6384   -9.8739 N.am      9 UNK        -0.4262 
     55 CA         30.6500    1.8814   -9.4440 C.3       9 UNK         0.0264 
     56 CB         31.2885    3.0013  -10.2967 C.3       9 UNK        -0.1955 
     57 C          31.4701    0.5915   -9.5732 C.2       9 UNK         0.5031 
     58 O          31.0327   -0.3530  -10.2353 O.2       9 UNK        -0.5390 
     59 N          32.6740    0.6171   -8.9835 N.am      10 UNK        -0.4204 
     60 CA         33.7496   -0.3749   -9.1070 C.3       10 UNK         0.0237 
     61 CB         34.2881   -0.4136  -10.5546 C.3       10 UNK        -0.1985 
     62 C          33.3989   -1.7723   -8.5603 C.2       10 UNK         0.4970 
     63 O          33.8461   -2.7743   -9.1218 O.2       10 UNK        -0.4914 
     64 N          32.6458   -1.8137   -7.4521 N.am      11 UNK        -0.4285 
     65 CA         32.2883   -3.0377   -6.7131 C.3       11 UNK         0.1007 
     66 C          31.3274   -4.0010   -7.4807 C.2       11 UNK         0.5703 
     67 N          30.5985   -3.5401   -8.4892 N.am      11 UNK        -0.7361 
     68 O          31.2183   -5.1793   -7.1521 O.2       11 UNK        -0.4986 
     69 C69        33.5527   -3.7443   -6.1310 C.3       12 UNK        -0.0947 
     70 S70        33.2674   -4.6067   -4.5461 S.3       12 UNK        -0.2240 
     71 C71        34.1103   -3.5272   -3.3450 C.3       12 UNK         0.0194 
     72 H72        29.4668   -5.1332   -4.0367 H         1 UNK         0.0906 
     73 H73        29.1916   -3.8152   -5.1797 H         1 UNK         0.0906 
     74 H74        30.5658   -3.7512   -4.0757 H         1 UNK         0.0906 
     75 H75        28.6280   -4.9294   -1.9458 H         1 UNK         0.3140 
     76 H76        27.6179   -4.2709   -0.1482 H         1 UNK         0.1085 
     77 H77        28.6503   -1.4681   -0.8003 H         1 UNK         0.0836 
     78 H78        27.9142   -1.9063    0.7213 H         1 UNK         0.0836 
     79 H79        31.9951   -1.6067    0.9816 H         1 UNK         0.0731 
     80 H80        30.6486   -0.6030    0.5187 H         1 UNK         0.0731 
     81 H81        32.7143   -3.3850   -1.0039 H         1 UNK         0.1312 
     82 H82        33.5581   -1.1469   -4.5635 H         1 UNK         0.1406 
     83 H83        30.9775    0.4941   -1.5588 H         1 UNK         0.1631 
     84 H84        33.0459    1.5435   -4.1083 H         1 UNK         0.0717 
     85 H85        31.4334    1.7924   -3.4836 H         1 UNK         0.0717 
     86 H86        29.9176   -1.0997   -5.3021 H         1 UNK         0.0934 
     87 H87        29.5474    0.1429   -4.1495 H         1 UNK         0.0934 
     88 H88        29.0469    0.7398   -7.0769 H         1 UNK         0.0739 
     89 H89        26.9421   -0.7601   -5.6413 H         1 UNK         0.3093 
     90 H90        26.2140   -2.3207   -8.7358 H         1 UNK         0.0818 
     91 H91        26.0856   -4.4788   -7.5593 H         1 UNK         0.0819 
     92 H92        27.7764   -4.0540   -7.7544 H         1 UNK         0.0819 
     93 H93        26.9985   -3.8428   -6.1914 H         1 UNK         0.0819 
     94 H94        24.8441   -2.6652   -6.3298 H         1 UNK         0.3041 
     95 H95        23.3926    0.4757   -5.7688 H         1 UNK         0.0784 
     96 H96        21.9574   -0.3678   -7.6427 H         1 UNK         0.0793 
     97 H97        21.9996   -1.9831   -6.9509 H         1 UNK         0.0793 
     98 H98        21.2256   -0.6609   -6.0759 H         1 UNK         0.0793 
     99 H99        22.7052   -1.8741   -4.5034 H         1 UNK         0.3024 
    100 H100       24.0110   -1.6191   -1.9093 H         1 UNK         0.1171 
    101 H101       23.6124   -4.1346   -2.0099 H         1 UNK         0.0786 
    102 H102       22.5817   -3.2684   -3.1201 H         1 UNK         0.0786 
    103 H103       24.0071   -4.1130   -3.7236 H         1 UNK         0.0786 
    104 H104       26.5609   -2.3913   -2.9300 H         1 UNK         0.2977 
    105 H105       26.3749    0.7476   -4.7515 H         1 UNK         0.3127 
    106 H106       26.7166    3.4932   -3.9925 H         1 UNK         0.0770 
    107 H107       24.4708    3.2283   -3.0111 H         1 UNK         0.0814 
    108 H108       25.4560    1.8253   -2.6279 H         1 UNK         0.0814 
    109 H109       24.2197    1.7241   -3.8804 H         1 UNK         0.0814 
    110 H110       25.0602    1.9394   -6.7356 H         1 UNK         0.2983 
    111 H111       24.0493    4.6056   -7.6644 H         1 UNK         0.0947 
    112 H112       22.3880    3.3537   -8.9617 H         1 UNK         0.0806 
    113 H113       22.2455    2.9123   -7.2679 H         1 UNK         0.0806 
    114 H114       23.0231    1.8154   -8.4070 H         1 UNK         0.0806 
    115 H115       25.6131    1.5351   -8.6625 H         1 UNK         0.3000 
    116 H116       26.7062    2.7642  -11.1211 H         1 UNK         0.0850 
    117 H117       27.5067    0.4605  -11.5861 H         1 UNK         0.0810 
    118 H118       25.7911    0.4671  -11.2379 H         1 UNK         0.0810 
    119 H119       26.9212   -0.0805  -10.0134 H         1 UNK         0.0810 
    120 H120       29.1286    0.7317  -10.3041 H         1 UNK         0.3040 
    121 H121       30.6397    2.1786   -8.3931 H         1 UNK         0.0766 
    122 H122       31.2841    2.7466  -11.3573 H         1 UNK         0.0812 
    123 H123       32.3252    3.1817  -10.0105 H         1 UNK         0.0812 
    124 H124       30.7640    3.9494  -10.1806 H         1 UNK         0.0812 
    125 H125       32.9108    1.4374   -8.4418 H         1 UNK         0.3205 
    126 H126       34.5607   -0.0127   -8.4736 H         1 UNK         0.0754 
    127 H127       35.1825   -1.0340  -10.6255 H         1 UNK         0.0769 
    128 H128       34.5600    0.5824  -10.9041 H         1 UNK         0.0769 
    129 H129       33.5528   -0.8232  -11.2482 H         1 UNK         0.0769 
    130 H130       32.2900   -0.9469   -7.0716 H         1 UNK         0.2981 
    131 H131       31.7002   -2.6732   -5.8721 H         1 UNK         0.0541 
    132 H132       29.9846   -4.1699   -8.9780 H         1 UNK         0.3459 
    133 H133       30.6188   -2.5627   -8.7455 H         1 UNK         0.3459 
    134 H134       34.3530   -3.0195   -5.9783 H         1 UNK         0.0612 
    135 H135       33.9556   -4.4629   -6.8467 H         1 UNK         0.0612 
    136 H136       34.4276   -4.1420   -2.5014 H         1 UNK         0.0624 
    137 H137       35.0263   -3.1205   -3.7756 H         1 UNK         0.0624 
@<TRIPOS>BOND
     1    1    2 1    
     2    1   72 1    
     3    1   73 1    
     4    1   74 1    
     5    2    3 2    
     6    2    4 am   BACKBONE|DICT|INTERRES
     7    4    5 1    
     8    4   75 1    
     9    5    6 1    
    10    5   35 1    
    11    5   76 1    
    12    6    7 1    
    13    6   77 1    
    14    6   78 1    
    15    7    8 1    
    16    8    9 1    
    17    8   79 1    
    18    8   80 1    
    19    9   10 ar   
    20    9   14 ar   
    21   10   11 ar   
    22   10   81 1    
    23   11   12 ar   
    24   11   71 1    
    25   12   13 ar   
    26   12   82 1    
    27   13   14 ar   
    28   13   15 1    
    29   14   83 1    
    30   15   16 1    
    31   15   84 1    
    32   15   85 1    
    33   16   17 1    
    34   17   18 1    
    35   17   86 1    
    36   17   87 1    
    37   18   19 1    
    38   18   37 1    
    39   18   88 1    
    40   19   20 am   BACKBONE|DICT|INTERRES
    41   19   89 1    
    42   20   21 2    
    43   20   22 1    
    44   22   23 1    
    45   22   24 1    
    46   22   90 1    
    47   23   91 1    
    48   23   92 1    
    49   23   93 1    
    50   24   25 am   BACKBONE|DICT|INTERRES
    51   24   94 1    
    52   25   26 2    
    53   25   27 1    
    54   27   28 1    
    55   27   29 1    
    56   27   95 1    
    57   28   96 1    
    58   28   97 1    
    59   28   98 1    
    60   29   30 am   BACKBONE|DICT|INTERRES
    61   29   99 1    
    62   30   31 2    
    63   30   32 1    
    64   32   33 1    
    65   32   34 1    
    66   32  100 1    
    67   33  101 1    
    68   33  102 1    
    69   33  103 1    
    70   34   35 am   BACKBONE|DICT|INTERRES
    71   34  104 1    
    72   35   36 2    
    73   37   38 2    
    74   37   39 am   BACKBONE|DICT|INTERRES
    75   39   40 1    
    76   39  105 1    
    77   40   41 1    
    78   40   42 1    
    79   40  106 1    
    80   41  107 1    
    81   41  108 1    
    82   41  109 1    
    83   42   43 2    
    84   42   44 am   BACKBONE|DICT|INTERRES
    85   44   45 1    
    86   44  110 1    
    87   45   46 1    
    88   45   47 1    
    89   45  111 1    
    90   46  112 1    
    91   46  113 1    
    92   46  114 1    
    93   47   48 2    
    94   47   49 am   BACKBONE|DICT|INTERRES
    95   49   50 1    
    96   49  115 1    
    97   50   51 1    
    98   50   52 1    
    99   50  116 1    
   100   51  117 1    
   101   51  118 1    
   102   51  119 1    
   103   52   53 2    
   104   52   54 am   BACKBONE|DICT|INTERRES
   105   54   55 1    
   106   54  120 1    
   107   55   56 1    
   108   55   57 1    
   109   55  121 1    
   110   56  122 1    
   111   56  123 1    
   112   56  124 1    
   113   57   58 2    
   114   57   59 am   BACKBONE|DICT|INTERRES
   115   59   60 1    
   116   59  125 1    
   117   60   61 1    
   118   60   62 1    
   119   60  126 1    
   120   61  127 1    
   121   61  128 1    
   122   61  129 1    
   123   62   63 2    
   124   62   64 am   BACKBONE|DICT|INTERRES
   125   64   65 1    
   126   64  130 1    
   127   65   66 1    
   128   65   69 1    
   129   65  131 1    
   130   66   67 am   BACKBONE|DICT|INTERRES
   131   66   68 2    
   132   67  132 1    
   133   67  133 1    
   134   69   70 1    
   135   69  134 1    
   136   69  135 1    
   137   70   71 1    
   138   71  136 1    
   139   71  137 1    
@<TRIPOS>SUBSTRUCTURE
     1 UNK         1 GROUP             0       ****    0 ROOT    
