@<TRIPOS>MOLECULE
3R137
137   139    1
SMALL
USER_CHARGES


@<TRIPOS>ATOM
      1 CA         28.7158   -0.6860    2.8439 C.3       0 UNK        -0.2020 
      2 C          28.1385   -0.1408    1.5464 C.2       0 UNK         0.4855 
      3 O          27.6926    1.0060    1.5077 O.2       0 UNK        -0.5197 
      4 N          28.1407   -0.9541    0.4823 N.am      1 UNK        -0.4892 
      5 CA         27.6089   -0.6062   -0.8421 C.3       1 UNK         0.0835 
      6 C6         28.1759   -1.5328   -1.9469 C.3       12 UNK        -0.0855 
      7 S7         27.8859   -3.3137   -1.6543 S.3       12 UNK        -0.2931 
      8 C8         29.4952   -4.0321   -2.1271 C.3       12 UNK         0.0378 
      9 C9         29.7926   -3.8902   -3.6165 C.ar      12 UNK        -0.0802 
     10 C10        30.9830   -3.2957   -4.0481 C.ar      12 UNK        -0.0944 
     11 C11        31.2748   -3.1949   -5.4127 C.ar      12 UNK        -0.0787 
     12 C12        30.3549   -3.6772   -6.3503 C.ar      12 UNK        -0.0862 
     13 C13        29.1649   -4.2837   -5.9343 C.ar      12 UNK        -0.0733 
     14 C14        28.8989   -4.3959   -4.5652 C.ar      12 UNK        -0.0832 
     15 C15        28.2069   -4.8801   -6.9610 C.3       12 UNK         0.0240 
     16 S16        26.4673   -4.4074   -6.6723 S.3       12 UNK        -0.2522 
     17 C17        26.0700   -3.3763   -8.1275 C.3       12 UNK        -0.0967 
     18 CA         26.0728   -1.8543   -7.8460 C.3       5 UNK         0.0660 
     19 N          25.2149   -1.4971   -6.7077 N.am      5 UNK        -0.4015 
     20 C          24.9059   -0.2628   -6.2893 C.2       4 UNK         0.4946 
     21 O          25.3342    0.7584   -6.8295 O.2       4 UNK        -0.5353 
     22 CA         24.0214   -0.1217   -5.0353 C.3       4 UNK         0.0277 
     23 CB         22.5755    0.2460   -5.4210 C.3       4 UNK        -0.1981 
     24 N          24.0549   -1.2554   -4.0945 N.am      4 UNK        -0.4209 
     25 C          23.5886   -2.5052   -4.2619 C.2       3 UNK         0.4942 
     26 O          23.1043   -2.9084   -5.3192 O.2       3 UNK        -0.5208 
     27 CA         23.7097   -3.4950   -3.0846 C.3       3 UNK         0.0250 
     28 CB         24.7249   -4.6008   -3.4157 C.3       3 UNK        -0.1990 
     29 N          24.0958   -2.8666   -1.8201 N.am      3 UNK        -0.4232 
     30 C          23.2984   -2.0994   -1.0628 C.2       2 UNK         0.4993 
     31 O          22.1047   -1.9130   -1.2995 O.2       2 UNK        -0.5286 
     32 CA         23.9453   -1.3947    0.1459 C.3       2 UNK         0.0209 
     33 CB         23.5941   -2.1297    1.4498 C.3       2 UNK        -0.1931 
     34 N          25.4044   -1.2554    0.0535 N.am      2 UNK        -0.4546 
     35 C          26.0664   -0.5718   -0.8932 C.2       1 UNK         0.5154 
     36 O          25.5058    0.0275   -1.8125 O.2       1 UNK        -0.5181 
     37 C          27.5079   -1.2906   -7.7767 C.2       5 UNK         0.5014 
     38 O          28.1598   -1.1948   -8.8170 O.2       5 UNK        -0.5248 
     39 N          27.9569   -0.8641   -6.5882 N.am      6 UNK        -0.4434 
     40 CA         29.1951   -0.1137   -6.3794 C.3       6 UNK         0.0363 
     41 CB         29.3839    0.1628   -4.8820 C.3       6 UNK        -0.1936 
     42 C          29.2726    1.1991   -7.1764 C.2       6 UNK         0.5081 
     43 O          30.3658    1.5782   -7.5959 O.2       6 UNK        -0.5248 
     44 N          28.1214    1.8483   -7.4081 N.am      7 UNK        -0.4718 
     45 CA         28.0140    3.0504   -8.2383 C.3       7 UNK         0.0273 
     46 CB         26.6603    3.7305   -7.9809 C.3       7 UNK        -0.1935 
     47 C          28.1942    2.7557   -9.7376 C.2       7 UNK         0.5018 
     48 O          28.7154    3.6074  -10.4575 O.2       7 UNK        -0.5186 
     49 N          27.7773    1.5594  -10.1772 N.am      8 UNK        -0.4240 
     50 CA         27.9603    1.0714  -11.5456 C.3       8 UNK         0.0235 
     51 CB         26.9238   -0.0221  -11.8543 C.3       8 UNK        -0.2000 
     52 C          29.3903    0.5568  -11.7702 C.2       8 UNK         0.4941 
     53 O          29.9778    0.8411  -12.8143 O.2       8 UNK        -0.5273 
     54 N          29.9308   -0.1685  -10.7795 N.am      9 UNK        -0.4262 
     55 CA         31.3114   -0.6601  -10.7566 C.3       9 UNK         0.0264 
     56 CB         31.4653   -1.6780   -9.6145 C.3       9 UNK        -0.1955 
     57 C          32.3567    0.4613  -10.6131 C.2       9 UNK         0.5031 
     58 O          33.4846    0.2889  -11.0770 O.2       9 UNK        -0.5390 
     59 N          31.9653    1.5696   -9.9654 N.am      10 UNK        -0.4204 
     60 CA         32.7708    2.7461   -9.6207 C.3       10 UNK         0.0237 
     61 CB         33.2585    3.4828  -10.8867 C.3       10 UNK        -0.1985 
     62 C          33.9032    2.4156   -8.6288 C.2       10 UNK         0.4970 
     63 O          34.9853    2.9997   -8.7135 O.2       10 UNK        -0.4914 
     64 N          33.6312    1.4838   -7.7058 N.am      11 UNK        -0.4285 
     65 CA         34.5675    1.0358   -6.6636 C.3       11 UNK         0.1007 
     66 C          34.6357    1.9605   -5.4128 C.2       11 UNK         0.5703 
     67 N          33.7678    2.9564   -5.2726 N.am      11 UNK        -0.7361 
     68 O          35.5064    1.7826   -4.5640 O.2       11 UNK        -0.4986 
     69 C69        34.3422   -0.4549   -6.2953 C.3       12 UNK        -0.0947 
     70 S70        32.6741   -0.8113   -5.6530 S.3       12 UNK        -0.2240 
     71 C71        32.6066   -2.6133   -5.8694 C.3       12 UNK         0.0194 
     72 H72        29.0776   -1.7081    2.7324 H         1 UNK         0.0906 
     73 H73        29.5492   -0.0659    3.1731 H         1 UNK         0.0906 
     74 H74        27.9560   -0.6784    3.6251 H         1 UNK         0.0906 
     75 H75        28.5177   -1.8890    0.5620 H         1 UNK         0.3140 
     76 H76        27.9360    0.4107   -1.0717 H         1 UNK         0.1085 
     77 H77        27.7529   -1.2777   -2.9199 H         1 UNK         0.0836 
     78 H78        29.2492   -1.3580   -2.0350 H         1 UNK         0.0836 
     79 H79        30.2813   -3.5742   -1.5245 H         1 UNK         0.0731 
     80 H80        29.4927   -5.0926   -1.8718 H         1 UNK         0.0731 
     81 H81        31.6944   -2.9224   -3.3241 H         1 UNK         0.1312 
     82 H82        30.5795   -3.6061   -7.4054 H         1 UNK         0.1406 
     83 H83        27.9923   -4.8830   -4.2337 H         1 UNK         0.1631 
     84 H84        28.2803   -5.9669   -6.9066 H         1 UNK         0.0717 
     85 H85        28.5101   -4.6074   -7.9724 H         1 UNK         0.0717 
     86 H86        26.7235   -3.6240   -8.9662 H         1 UNK         0.0934 
     87 H87        25.0718   -3.6689   -8.4573 H         1 UNK         0.0934 
     88 H88        25.6220   -1.3714   -8.7156 H         1 UNK         0.0739 
     89 H89        24.7622   -2.2716   -6.2336 H         1 UNK         0.3093 
     90 H90        24.4312    0.7215   -4.4765 H         1 UNK         0.0818 
     91 H91        21.9627    0.4232   -4.5371 H         1 UNK         0.0819 
     92 H92        22.5532    1.1582   -6.0188 H         1 UNK         0.0819 
     93 H93        22.0971   -0.5368   -6.0102 H         1 UNK         0.0819 
     94 H94        24.4741   -1.0284   -3.1976 H         1 UNK         0.3041 
     95 H95        22.7302   -3.9589   -2.9505 H         1 UNK         0.0784 
     96 H96        24.4300   -5.1468   -4.3130 H         1 UNK         0.0793 
     97 H97        25.7184   -4.1910   -3.5979 H         1 UNK         0.0793 
     98 H98        24.8032   -5.3279   -2.6073 H         1 UNK         0.0793 
     99 H99        25.0606   -2.9727   -1.5382 H         1 UNK         0.3024 
    100 H100       23.5209   -0.3891    0.1905 H         1 UNK         0.1171 
    101 H101       24.0140   -3.1362    1.4716 H         1 UNK         0.0786 
    102 H102       23.9646   -1.5907    2.3221 H         1 UNK         0.0786 
    103 H103       22.5134   -2.2248    1.5661 H         1 UNK         0.0786 
    104 H104       25.9537   -1.7253    0.7587 H         1 UNK         0.2977 
    105 H105       27.3635   -0.9990   -5.7844 H         1 UNK         0.3127 
    106 H106       30.0130   -0.7461   -6.7225 H         1 UNK         0.0770 
    107 H107       28.5159    0.6555   -4.4430 H         1 UNK         0.0814 
    108 H108       30.2477    0.8056   -4.7058 H         1 UNK         0.0814 
    109 H109       29.5681   -0.7656   -4.3447 H         1 UNK         0.0814 
    110 H110       27.2524    1.4606   -7.0520 H         1 UNK         0.2983 
    111 H111       28.8057    3.7423   -7.9415 H         1 UNK         0.0947 
    112 H112       26.5705    4.6519   -8.5580 H         1 UNK         0.0806 
    113 H113       26.5420    3.9936   -6.9297 H         1 UNK         0.0806 
    114 H114       25.8249    3.0873   -8.2607 H         1 UNK         0.0806 
    115 H115       27.4056    0.9039   -9.5041 H         1 UNK         0.3000 
    116 H116       27.7904    1.8998  -12.2373 H         1 UNK         0.0850 
    117 H117       27.0193   -0.3654  -12.8853 H         1 UNK         0.0810 
    118 H118       25.9066    0.3500  -11.7307 H         1 UNK         0.0810 
    119 H119       27.0423   -0.8943  -11.2110 H         1 UNK         0.0810 
    120 H120       29.3387   -0.4297   -9.9924 H         1 UNK         0.3040 
    121 H121       31.5018   -1.1718  -11.7022 H         1 UNK         0.0766 
    122 H122       31.2947   -1.2184   -8.6411 H         1 UNK         0.0812 
    123 H123       32.4699   -2.1028   -9.6019 H         1 UNK         0.0812 
    124 H124       30.7631   -2.5047   -9.7228 H         1 UNK         0.0812 
    125 H125       31.0459    1.5538   -9.5371 H         1 UNK         0.3205 
    126 H126       32.0975    3.4211   -9.0902 H         1 UNK         0.0754 
    127 H127       33.7264    4.4338  -10.6295 H         1 UNK         0.0769 
    128 H128       32.4295    3.7020  -11.5599 H         1 UNK         0.0769 
    129 H129       33.9945    2.8983  -11.4394 H         1 UNK         0.0769 
    130 H130       32.6984    1.0950   -7.6632 H         1 UNK         0.2981 
    131 H131       35.5699    1.0842   -7.0933 H         1 UNK         0.0541 
    132 H132       33.0454    3.1031   -5.9586 H         1 UNK         0.3459 
    133 H133       33.8272    3.5529   -4.4627 H         1 UNK         0.3459 
    134 H134       35.0777   -0.7887   -5.5611 H         1 UNK         0.0612 
    135 H135       34.5078   -1.0690   -7.1819 H         1 UNK         0.0612 
    136 H136       32.7892   -2.8541   -6.9177 H         1 UNK         0.0624 
    137 H137       33.4163   -3.0725   -5.3005 H         1 UNK         0.0624 
@<TRIPOS>BOND
     1    1    2 1    
     2    1   72 1    
     3    1   73 1    
     4    1   74 1    
     5    2    3 2    
     6    2    4 am   BACKBONE|DICT|INTERRES
     7    4    5 1    
     8    4   75 1    
     9    5    6 1    
    10    5   35 1    
    11    5   76 1    
    12    6    7 1    
    13    6   77 1    
    14    6   78 1    
    15    7    8 1    
    16    8    9 1    
    17    8   79 1    
    18    8   80 1    
    19    9   10 ar   
    20    9   14 ar   
    21   10   11 ar   
    22   10   81 1    
    23   11   12 ar   
    24   11   71 1    
    25   12   13 ar   
    26   12   82 1    
    27   13   14 ar   
    28   13   15 1    
    29   14   83 1    
    30   15   16 1    
    31   15   84 1    
    32   15   85 1    
    33   16   17 1    
    34   17   18 1    
    35   17   86 1    
    36   17   87 1    
    37   18   19 1    
    38   18   37 1    
    39   18   88 1    
    40   19   20 am   BACKBONE|DICT|INTERRES
    41   19   89 1    
    42   20   21 2    
    43   20   22 1    
    44   22   23 1    
    45   22   24 1    
    46   22   90 1    
    47   23   91 1    
    48   23   92 1    
    49   23   93 1    
    50   24   25 am   BACKBONE|DICT|INTERRES
    51   24   94 1    
    52   25   26 2    
    53   25   27 1    
    54   27   28 1    
    55   27   29 1    
    56   27   95 1    
    57   28   96 1    
    58   28   97 1    
    59   28   98 1    
    60   29   30 am   BACKBONE|DICT|INTERRES
    61   29   99 1    
    62   30   31 2    
    63   30   32 1    
    64   32   33 1    
    65   32   34 1    
    66   32  100 1    
    67   33  101 1    
    68   33  102 1    
    69   33  103 1    
    70   34   35 am   BACKBONE|DICT|INTERRES
    71   34  104 1    
    72   35   36 2    
    73   37   38 2    
    74   37   39 am   BACKBONE|DICT|INTERRES
    75   39   40 1    
    76   39  105 1    
    77   40   41 1    
    78   40   42 1    
    79   40  106 1    
    80   41  107 1    
    81   41  108 1    
    82   41  109 1    
    83   42   43 2    
    84   42   44 am   BACKBONE|DICT|INTERRES
    85   44   45 1    
    86   44  110 1    
    87   45   46 1    
    88   45   47 1    
    89   45  111 1    
    90   46  112 1    
    91   46  113 1    
    92   46  114 1    
    93   47   48 2    
    94   47   49 am   BACKBONE|DICT|INTERRES
    95   49   50 1    
    96   49  115 1    
    97   50   51 1    
    98   50   52 1    
    99   50  116 1    
   100   51  117 1    
   101   51  118 1    
   102   51  119 1    
   103   52   53 2    
   104   52   54 am   BACKBONE|DICT|INTERRES
   105   54   55 1    
   106   54  120 1    
   107   55   56 1    
   108   55   57 1    
   109   55  121 1    
   110   56  122 1    
   111   56  123 1    
   112   56  124 1    
   113   57   58 2    
   114   57   59 am   BACKBONE|DICT|INTERRES
   115   59   60 1    
   116   59  125 1    
   117   60   61 1    
   118   60   62 1    
   119   60  126 1    
   120   61  127 1    
   121   61  128 1    
   122   61  129 1    
   123   62   63 2    
   124   62   64 am   BACKBONE|DICT|INTERRES
   125   64   65 1    
   126   64  130 1    
   127   65   66 1    
   128   65   69 1    
   129   65  131 1    
   130   66   67 am   BACKBONE|DICT|INTERRES
   131   66   68 2    
   132   67  132 1    
   133   67  133 1    
   134   69   70 1    
   135   69  134 1    
   136   69  135 1    
   137   70   71 1    
   138   71  136 1    
   139   71  137 1    
@<TRIPOS>SUBSTRUCTURE
     1 UNK         1 GROUP             0       ****    0 ROOT    
