@<TRIPOS>MOLECULE
3R137
137   139    1
SMALL
USER_CHARGES


@<TRIPOS>ATOM
      1 CA         25.3479   -6.6305   -1.5017 C.3       0 UNK        -0.2020 
      2 C          26.4314   -6.5685   -2.5765 C.2       0 UNK         0.4855 
      3 O          26.5723   -7.5205   -3.3418 O.2       0 UNK        -0.5197 
      4 N          27.2306   -5.4960   -2.6711 N.am      1 UNK        -0.4892 
      5 CA         27.1674   -4.2549   -1.8859 C.3       1 UNK         0.0835 
      6 C6         28.4316   -3.3888   -2.0990 C.3       12 UNK        -0.0855 
      7 S7         29.9545   -4.2256   -1.5360 S.3       12 UNK        -0.2931 
      8 C8         31.1197   -3.8615   -2.8992 C.3       12 UNK         0.0378 
      9 C9         31.2338   -2.3788   -3.2573 C.ar      12 UNK        -0.0802 
     10 C10        31.4375   -2.0093   -4.5912 C.ar      12 UNK        -0.0944 
     11 C11        31.5026   -0.6620   -4.9588 C.ar      12 UNK        -0.0787 
     12 C12        31.3714    0.3220   -3.9744 C.ar      12 UNK        -0.0862 
     13 C13        31.1344   -0.0289   -2.6441 C.ar      12 UNK        -0.0733 
     14 C14        31.1057   -1.3782   -2.2863 C.ar      12 UNK        -0.0832 
     15 C15        30.8419    1.0418   -1.6010 C.3       12 UNK         0.0240 
     16 S16        29.4506    2.1338   -2.0679 S.3       12 UNK        -0.2522 
     17 C17        28.1394    0.9762   -2.6130 C.3       12 UNK        -0.0967 
     18 CA         27.9438    0.9885   -4.1538 C.3       5 UNK         0.0660 
     19 N          27.2274   -0.1912   -4.6429 N.am      5 UNK        -0.4015 
     20 C          27.2724   -0.6258   -5.9126 C.2       4 UNK         0.4946 
     21 O          27.9812   -0.1241   -6.7855 O.2       4 UNK        -0.5353 
     22 CA         26.3396   -1.7872   -6.2966 C.3       4 UNK         0.0277 
     23 CB         27.0427   -3.1399   -6.1061 C.3       4 UNK        -0.1981 
     24 N          25.0731   -1.7698   -5.5589 N.am      4 UNK        -0.4209 
     25 C          24.1365   -0.8211   -5.7167 C.2       3 UNK         0.4942 
     26 O          24.2269    0.0904   -6.5369 O.2       3 UNK        -0.5208 
     27 CA         22.9204   -0.8463   -4.7744 C.3       3 UNK         0.0250 
     28 CB         21.7725   -1.6502   -5.4044 C.3       3 UNK        -0.1990 
     29 N          23.2066   -1.3722   -3.4384 N.am      3 UNK        -0.4232 
     30 C          24.1443   -0.9162   -2.5957 C.2       2 UNK         0.4993 
     31 O          24.8892    0.0340   -2.8464 O.2       2 UNK        -0.5286 
     32 CA         24.3264   -1.6898   -1.2756 C.3       2 UNK         0.0209 
     33 CB         23.0967   -2.5381   -0.8773 C.3       2 UNK        -0.1931 
     34 N          25.5318   -2.5324   -1.2746 N.am      2 UNK        -0.4546 
     35 C          25.8963   -3.4354   -2.1994 C.2       1 UNK         0.5154 
     36 O          25.2853   -3.6269   -3.2547 O.2       1 UNK        -0.5181 
     37 C          27.2681    2.2786   -4.6524 C.2       5 UNK         0.5014 
     38 O          27.9656    3.1819   -5.1144 O.2       5 UNK        -0.5248 
     39 N          25.9274    2.3250   -4.6001 N.am      6 UNK        -0.4434 
     40 CA         25.1189    3.4417   -5.1030 C.3       6 UNK         0.0363 
     41 CB         23.6413    3.2162   -4.7469 C.3       6 UNK        -0.1936 
     42 C          25.2861    3.6776   -6.6163 C.2       6 UNK         0.5081 
     43 O          25.3915    4.8279   -7.0425 O.2       6 UNK        -0.5248 
     44 N          25.3337    2.5882   -7.3947 N.am      7 UNK        -0.4718 
     45 CA         25.5815    2.6045   -8.8388 C.3       7 UNK         0.0273 
     46 CB         25.0884    1.2776   -9.4399 C.3       7 UNK        -0.1935 
     47 C          27.0582    2.8301   -9.2133 C.2       7 UNK         0.5018 
     48 O          27.3261    3.1742  -10.3651 O.2       7 UNK        -0.5186 
     49 N          27.9773    2.6036   -8.2608 N.am      8 UNK        -0.4240 
     50 CA         29.4381    2.5718   -8.4139 C.3       8 UNK         0.0235 
     51 CB         29.9973    3.9754   -8.7249 C.3       8 UNK        -0.2000 
     52 C          29.8755    1.5013   -9.4336 C.2       8 UNK         0.4941 
     53 O          30.6164    1.7924  -10.3762 O.2       8 UNK        -0.5273 
     54 N          29.3619    0.2795   -9.2440 N.am      9 UNK        -0.4262 
     55 CA         29.4924   -0.8594  -10.1519 C.3       9 UNK         0.0264 
     56 CB         28.3972   -1.8846   -9.8042 C.3       9 UNK        -0.1955 
     57 C          30.9038   -1.4807  -10.1510 C.2       9 UNK         0.5031 
     58 O          31.0805   -2.5909   -9.6463 O.2       9 UNK        -0.5390 
     59 N          31.8678   -0.7560  -10.7391 N.am      10 UNK        -0.4204 
     60 CA         33.2611   -1.1482  -11.0020 C.3       10 UNK         0.0237 
     61 CB         33.3146   -2.2555  -12.0766 C.3       10 UNK        -0.1985 
     62 C          34.0202   -1.5268   -9.7167 C.2       10 UNK         0.4970 
     63 O          34.4320   -2.6763   -9.5473 O.2       10 UNK        -0.4914 
     64 N          34.1559   -0.5434   -8.8212 N.am      11 UNK        -0.4285 
     65 CA         34.6939   -0.7030   -7.4597 C.3       11 UNK         0.1007 
     66 C          36.2150   -1.0218   -7.3675 C.2       11 UNK         0.5703 
     67 N          36.9929   -0.8713   -8.4329 N.am      11 UNK        -0.7361 
     68 O          36.6963   -1.4155   -6.3077 O.2       11 UNK        -0.4986 
     69 C69        34.3286    0.5018   -6.5465 C.3       12 UNK        -0.0947 
     70 S70        32.6426    1.1660   -6.7744 S.3       12 UNK        -0.2240 
     71 C71        31.5953   -0.2867   -6.4322 C.3       12 UNK         0.0194 
     72 H72        24.9766   -7.6499   -1.3980 H         1 UNK         0.0906 
     73 H73        25.7257   -6.3235   -0.5275 H         1 UNK         0.0906 
     74 H74        24.5027   -5.9975   -1.7706 H         1 UNK         0.0906 
     75 H75        27.9396   -5.5014   -3.3891 H         1 UNK         0.3140 
     76 H76        27.1277   -4.5284   -0.8298 H         1 UNK         0.1085 
     77 H77        28.3598   -2.4522   -1.5430 H         1 UNK         0.0836 
     78 H78        28.5325   -3.1076   -3.1482 H         1 UNK         0.0836 
     79 H79        30.8068   -4.4355   -3.7730 H         1 UNK         0.0731 
     80 H80        32.1081   -4.2313   -2.6240 H         1 UNK         0.0731 
     81 H81        31.5146   -2.7739   -5.3524 H         1 UNK         0.1312 
     82 H82        31.3791    1.3674   -4.2510 H         1 UNK         0.1406 
     83 H83        30.9364   -1.6489   -1.2534 H         1 UNK         0.1631 
     84 H84        31.7355    1.6496   -1.4534 H         1 UNK         0.0717 
     85 H85        30.6138    0.5894   -0.6347 H         1 UNK         0.0717 
     86 H86        28.3954   -0.0282   -2.2751 H         1 UNK         0.0934 
     87 H87        27.2114    1.2292   -2.0969 H         1 UNK         0.0934 
     88 H88        28.9282    0.9638   -4.6191 H         1 UNK         0.0739 
     89 H89        26.5429   -0.5895   -4.0126 H         1 UNK         0.3093 
     90 H90        26.1089   -1.6767   -7.3585 H         1 UNK         0.0818 
     91 H91        26.4331   -3.9591   -6.4875 H         1 UNK         0.0819 
     92 H92        27.9947   -3.1684   -6.6373 H         1 UNK         0.0819 
     93 H93        27.2533   -3.3435   -5.0582 H         1 UNK         0.0819 
     94 H94        24.9470   -2.4769   -4.8388 H         1 UNK         0.3041 
     95 H95        22.5839    0.1836   -4.6473 H         1 UNK         0.0784 
     96 H96        22.0339   -2.7026   -5.5228 H         1 UNK         0.0793 
     97 H97        21.5222   -1.2629   -6.3933 H         1 UNK         0.0793 
     98 H98        20.8678   -1.5936   -4.7987 H         1 UNK         0.0793 
     99 H99        22.6808   -2.1863   -3.1551 H         1 UNK         0.3024 
    100 H100       24.4677   -0.9300   -0.5047 H         1 UNK         0.1171 
    101 H101       23.2166   -2.9459    0.1266 H         1 UNK         0.0786 
    102 H102       22.1862   -1.9370   -0.8669 H         1 UNK         0.0786 
    103 H103       22.9353   -3.3803   -1.5514 H         1 UNK         0.0786 
    104 H104       26.1241   -2.4198   -0.4630 H         1 UNK         0.2977 
    105 H105       25.4327    1.5483   -4.1735 H         1 UNK         0.3127 
    106 H106       25.4574    4.3438   -4.5890 H         1 UNK         0.0770 
    107 H107       23.2250    2.3606   -5.2777 H         1 UNK         0.0814 
    108 H108       23.0417    4.0861   -5.0180 H         1 UNK         0.0814 
    109 H109       23.5074    3.0496   -3.6779 H         1 UNK         0.0814 
    110 H110       25.1440    1.6790   -6.9775 H         1 UNK         0.2983 
    111 H111       25.0033    3.4186   -9.2816 H         1 UNK         0.0947 
    112 H112       25.2231    1.2617  -10.5223 H         1 UNK         0.0806 
    113 H113       24.0275    1.1226   -9.2429 H         1 UNK         0.0806 
    114 H114       25.6323    0.4254   -9.0300 H         1 UNK         0.0806 
    115 H115       27.6363    2.3245   -7.3501 H         1 UNK         0.3000 
    116 H116       29.8375    2.2649   -7.4462 H         1 UNK         0.0850 
    117 H117       31.0879    3.9638   -8.7334 H         1 UNK         0.0810 
    118 H118       29.6858    4.6996   -7.9722 H         1 UNK         0.0810 
    119 H119       29.6685    4.3390   -9.6988 H         1 UNK         0.0810 
    120 H120       28.8010    0.1253   -8.4062 H         1 UNK         0.3040 
    121 H121       29.2966   -0.5061  -11.1666 H         1 UNK         0.0766 
    122 H122       28.5121   -2.2627   -8.7884 H         1 UNK         0.0812 
    123 H123       28.4337   -2.7413  -10.4783 H         1 UNK         0.0812 
    124 H124       27.4020   -1.4478   -9.8882 H         1 UNK         0.0812 
    125 H125       31.6107    0.1915  -11.0060 H         1 UNK         0.3205 
    126 H126       33.7606   -0.2695  -11.4133 H         1 UNK         0.0754 
    127 H127       32.8249   -1.9379  -12.9971 H         1 UNK         0.0769 
    128 H128       32.8307   -3.1731  -11.7399 H         1 UNK         0.0769 
    129 H129       34.3461   -2.5056  -12.3282 H         1 UNK         0.0769 
    130 H130       33.7827    0.3697   -9.0350 H         1 UNK         0.2981 
    131 H131       34.2001   -1.5814   -7.0405 H         1 UNK         0.0541 
    132 H132       36.6061   -0.5531   -9.3066 H         1 UNK         0.3459 
    133 H133       37.9755   -1.0838   -8.3617 H         1 UNK         0.3459 
    134 H134       34.4492    0.2293   -5.4964 H         1 UNK         0.0612 
    135 H135       35.0159    1.3310   -6.7245 H         1 UNK         0.0612 
    136 H136       30.5871   -0.0563   -6.7692 H         1 UNK         0.0624 
    137 H137       31.9233   -1.1327   -7.0364 H         1 UNK         0.0624 
@<TRIPOS>BOND
     1    1    2 1    
     2    1   72 1    
     3    1   73 1    
     4    1   74 1    
     5    2    3 2    
     6    2    4 am   BACKBONE|DICT|INTERRES
     7    4    5 1    
     8    4   75 1    
     9    5    6 1    
    10    5   35 1    
    11    5   76 1    
    12    6    7 1    
    13    6   77 1    
    14    6   78 1    
    15    7    8 1    
    16    8    9 1    
    17    8   79 1    
    18    8   80 1    
    19    9   10 ar   
    20    9   14 ar   
    21   10   11 ar   
    22   10   81 1    
    23   11   12 ar   
    24   11   71 1    
    25   12   13 ar   
    26   12   82 1    
    27   13   14 ar   
    28   13   15 1    
    29   14   83 1    
    30   15   16 1    
    31   15   84 1    
    32   15   85 1    
    33   16   17 1    
    34   17   18 1    
    35   17   86 1    
    36   17   87 1    
    37   18   19 1    
    38   18   37 1    
    39   18   88 1    
    40   19   20 am   BACKBONE|DICT|INTERRES
    41   19   89 1    
    42   20   21 2    
    43   20   22 1    
    44   22   23 1    
    45   22   24 1    
    46   22   90 1    
    47   23   91 1    
    48   23   92 1    
    49   23   93 1    
    50   24   25 am   BACKBONE|DICT|INTERRES
    51   24   94 1    
    52   25   26 2    
    53   25   27 1    
    54   27   28 1    
    55   27   29 1    
    56   27   95 1    
    57   28   96 1    
    58   28   97 1    
    59   28   98 1    
    60   29   30 am   BACKBONE|DICT|INTERRES
    61   29   99 1    
    62   30   31 2    
    63   30   32 1    
    64   32   33 1    
    65   32   34 1    
    66   32  100 1    
    67   33  101 1    
    68   33  102 1    
    69   33  103 1    
    70   34   35 am   BACKBONE|DICT|INTERRES
    71   34  104 1    
    72   35   36 2    
    73   37   38 2    
    74   37   39 am   BACKBONE|DICT|INTERRES
    75   39   40 1    
    76   39  105 1    
    77   40   41 1    
    78   40   42 1    
    79   40  106 1    
    80   41  107 1    
    81   41  108 1    
    82   41  109 1    
    83   42   43 2    
    84   42   44 am   BACKBONE|DICT|INTERRES
    85   44   45 1    
    86   44  110 1    
    87   45   46 1    
    88   45   47 1    
    89   45  111 1    
    90   46  112 1    
    91   46  113 1    
    92   46  114 1    
    93   47   48 2    
    94   47   49 am   BACKBONE|DICT|INTERRES
    95   49   50 1    
    96   49  115 1    
    97   50   51 1    
    98   50   52 1    
    99   50  116 1    
   100   51  117 1    
   101   51  118 1    
   102   51  119 1    
   103   52   53 2    
   104   52   54 am   BACKBONE|DICT|INTERRES
   105   54   55 1    
   106   54  120 1    
   107   55   56 1    
   108   55   57 1    
   109   55  121 1    
   110   56  122 1    
   111   56  123 1    
   112   56  124 1    
   113   57   58 2    
   114   57   59 am   BACKBONE|DICT|INTERRES
   115   59   60 1    
   116   59  125 1    
   117   60   61 1    
   118   60   62 1    
   119   60  126 1    
   120   61  127 1    
   121   61  128 1    
   122   61  129 1    
   123   62   63 2    
   124   62   64 am   BACKBONE|DICT|INTERRES
   125   64   65 1    
   126   64  130 1    
   127   65   66 1    
   128   65   69 1    
   129   65  131 1    
   130   66   67 am   BACKBONE|DICT|INTERRES
   131   66   68 2    
   132   67  132 1    
   133   67  133 1    
   134   69   70 1    
   135   69  134 1    
   136   69  135 1    
   137   70   71 1    
   138   71  136 1    
   139   71  137 1    
@<TRIPOS>SUBSTRUCTURE
     1 UNK         1 GROUP             0       ****    0 ROOT    
