@<TRIPOS>MOLECULE
3R137
137   139    1
SMALL
USER_CHARGES


@<TRIPOS>ATOM
      1 CA         30.7473   -2.3108    3.4653 C.3       0 UNK        -0.2020 
      2 C          30.4433   -1.9487    2.0192 C.2       0 UNK         0.4855 
      3 O          31.2282   -1.2421    1.3861 O.2       0 UNK        -0.5197 
      4 N          29.3101   -2.4215    1.4945 N.am      1 UNK        -0.4892 
      5 CA         28.8323   -2.1791    0.1345 C.3       1 UNK         0.0835 
      6 C6         29.5912   -3.0219   -0.9296 C.3       12 UNK        -0.0855 
      7 S7         29.3926   -4.8330   -0.7500 S.3       12 UNK        -0.2931 
      8 C8         30.7350   -5.4607   -1.8120 C.3       12 UNK         0.0378 
      9 C9         30.6840   -4.8940   -3.2261 C.ar      12 UNK        -0.0802 
     10 C10        31.7856   -4.2029   -3.7412 C.ar      12 UNK        -0.0944 
     11 C11        31.7458   -3.6645   -5.0301 C.ar      12 UNK        -0.0787 
     12 C12        30.5950   -3.8214   -5.8055 C.ar      12 UNK        -0.0862 
     13 C13        29.4798   -4.4923   -5.2970 C.ar      12 UNK        -0.0733 
     14 C14        29.5369   -5.0450   -4.0141 C.ar      12 UNK        -0.0832 
     15 C15        28.2074   -4.5944   -6.1275 C.3       12 UNK         0.0240 
     16 S16        26.8748   -3.5300   -5.4806 S.3       12 UNK        -0.2522 
     17 C17        27.5865   -1.8556   -5.6361 C.3       12 UNK        -0.0967 
     18 CA         27.0314   -1.0742   -6.8495 C.3       5 UNK         0.0660 
     19 N          25.5750   -0.8862   -6.7688 N.am      5 UNK        -0.4015 
     20 C          24.8041   -0.2094   -7.6324 C.2       4 UNK         0.4946 
     21 O          25.2457    0.3555   -8.6333 O.2       4 UNK        -0.5353 
     22 CA         23.3023   -0.0761   -7.3209 C.3       4 UNK         0.0277 
     23 CB         22.4951   -1.1994   -8.0005 C.3       4 UNK        -0.1981 
     24 N          22.9796    0.0541   -5.8899 N.am      4 UNK        -0.4209 
     25 C          23.0951   -0.8669   -4.9239 C.2       3 UNK         0.4942 
     26 O          23.4727   -2.0238   -5.1203 O.2       3 UNK        -0.5208 
     27 CA         22.7388   -0.4041   -3.5000 C.3       3 UNK         0.0250 
     28 CB         21.2205   -0.4882   -3.2715 C.3       3 UNK        -0.1990 
     29 N          23.4186   -1.2038   -2.4780 N.am      3 UNK        -0.4232 
     30 C          24.7435   -1.2363   -2.2830 C.2       2 UNK         0.4993 
     31 O          25.5501   -0.5138   -2.8777 O.2       2 UNK        -0.5286 
     32 CA         25.2436   -2.2624   -1.2590 C.3       2 UNK         0.0209 
     33 CB         25.0332   -3.7043   -1.7649 C.3       2 UNK        -0.1931 
     34 N          26.6641   -2.0412   -1.0019 N.am      2 UNK        -0.4546 
     35 C          27.3094   -2.4114    0.1083 C.2       1 UNK         0.5154 
     36 O          26.7516   -2.9346    1.0797 O.2       1 UNK        -0.5181 
     37 C          27.8077    0.2488   -7.0154 C.2       5 UNK         0.5014 
     38 O          28.7799    0.2902   -7.7716 O.2       5 UNK        -0.5248 
     39 N          27.3341    1.3155   -6.3559 N.am      6 UNK        -0.4434 
     40 CA         27.8666    2.6779   -6.4472 C.3       6 UNK         0.0363 
     41 CB         27.1477    3.5630   -5.4163 C.3       6 UNK        -0.1936 
     42 C          27.7784    3.3117   -7.8509 C.2       6 UNK         0.5081 
     43 O          28.5162    4.2604   -8.1155 O.2       6 UNK        -0.5248 
     44 N          26.8991    2.7913   -8.7170 N.am      7 UNK        -0.4718 
     45 CA         26.7768    3.1905  -10.1191 C.3       7 UNK         0.0273 
     46 CB         25.3017    3.4895  -10.4350 C.3       7 UNK        -0.1935 
     47 C          27.3159    2.0968  -11.0530 C.2       7 UNK         0.5018 
     48 O          28.0068    2.4205  -12.0191 O.2       7 UNK        -0.5186 
     49 N          26.9805    0.8306  -10.7637 N.am      8 UNK        -0.4240 
     50 CA         27.3159   -0.3338  -11.5861 C.3       8 UNK         0.0235 
     51 CB         26.4864   -1.5436  -11.1248 C.3       8 UNK        -0.2000 
     52 C          28.8141   -0.6748  -11.5937 C.2       8 UNK         0.4941 
     53 O          29.3488   -0.9895  -12.6580 O.2       8 UNK        -0.5273 
     54 N          29.4564   -0.6129  -10.4204 N.am      9 UNK        -0.4262 
     55 CA         30.8907   -0.8505  -10.2465 C.3       9 UNK         0.0264 
     56 CB         31.1163   -1.8485   -9.0983 C.3       9 UNK        -0.1955 
     57 C          31.6297    0.4629   -9.9650 C.2       9 UNK         0.5031 
     58 O          32.7092    0.6715  -10.5197 O.2       9 UNK        -0.5390 
     59 N          31.0389    1.3129   -9.1088 N.am      10 UNK        -0.4204 
     60 CA         31.5611    2.6043   -8.6416 C.3       10 UNK         0.0237 
     61 CB         31.6020    3.6313   -9.7929 C.3       10 UNK        -0.1985 
     62 C          32.9007    2.4762   -7.8881 C.2       10 UNK         0.4970 
     63 O          33.7700    3.3406   -8.0128 O.2       10 UNK        -0.4914 
     64 N          33.0347    1.3906   -7.1165 N.am      11 UNK        -0.4285 
     65 CA         34.2137    1.0531   -6.3061 C.3       11 UNK         0.1007 
     66 C          34.4033    1.9063   -5.0166 C.2       11 UNK         0.5703 
     67 N          33.4424    2.7290   -4.6119 N.am      11 UNK        -0.7361 
     68 O          35.4519    1.8309   -4.3804 O.2       11 UNK        -0.4986 
     69 C69        34.2738   -0.4716   -6.0200 C.3       12 UNK        -0.0947 
     70 S70        32.7729   -1.1218   -5.2090 S.3       12 UNK        -0.2240 
     71 C71        32.9341   -2.8930   -5.5792 C.3       12 UNK         0.0194 
     72 H72        31.6925   -2.8496    3.5261 H         1 UNK         0.0906 
     73 H73        30.8300   -1.4076    4.0694 H         1 UNK         0.0906 
     74 H74        29.9704   -2.9397    3.8999 H         1 UNK         0.0906 
     75 H75        28.6584   -2.9629    2.0513 H         1 UNK         0.3140 
     76 H76        28.9873   -1.1209   -0.0885 H         1 UNK         0.1085 
     77 H77        29.2669   -2.7398   -1.9330 H         1 UNK         0.0836 
     78 H78        30.6555   -2.7847   -0.8932 H         1 UNK         0.0836 
     79 H79        31.6901   -5.2330   -1.3359 H         1 UNK         0.0731 
     80 H80        30.6680   -6.5482   -1.8622 H         1 UNK         0.0731 
     81 H81        32.6727   -4.0721   -3.1364 H         1 UNK         0.1312 
     82 H82        30.5578   -3.3960   -6.7973 H         1 UNK         0.1406 
     83 H83        28.6750   -5.5626   -3.6146 H         1 UNK         0.1631 
     84 H84        27.8620   -5.6291   -6.1315 H         1 UNK         0.0717 
     85 H85        28.3988   -4.3314   -7.1692 H         1 UNK         0.0717 
     86 H86        27.3742   -1.3192   -4.7096 H         1 UNK         0.0934 
     87 H87        28.6732   -1.9222   -5.6894 H         1 UNK         0.0934 
     88 H88        27.2233   -1.6642   -7.7470 H         1 UNK         0.0739 
     89 H89        25.1034   -1.3685   -6.0086 H         1 UNK         0.3093 
     90 H90        22.9840    0.8647   -7.7733 H         1 UNK         0.0818 
     91 H91        21.4254   -1.0780   -7.8307 H         1 UNK         0.0819 
     92 H92        22.6550   -1.1909   -9.0797 H         1 UNK         0.0819 
     93 H93        22.7824   -2.1882   -7.6423 H         1 UNK         0.0819 
     94 H94        22.6690    0.9761   -5.6138 H         1 UNK         0.3041 
     95 H95        23.0583    0.6335   -3.3811 H         1 UNK         0.0784 
     96 H96        20.6788    0.1255   -3.9926 H         1 UNK         0.0793 
     97 H97        20.8532   -1.5103   -3.3745 H         1 UNK         0.0793 
     98 H98        20.9474   -0.1316   -2.2780 H         1 UNK         0.0793 
     99 H99        22.8406   -1.8549   -1.9672 H         1 UNK         0.3024 
    100 H100       24.6821   -2.1112   -0.3340 H         1 UNK         0.1171 
    101 H101       23.9802   -3.9121   -1.9571 H         1 UNK         0.0786 
    102 H102       25.3756   -4.4374   -1.0343 H         1 UNK         0.0786 
    103 H103       25.5753   -3.8838   -2.6942 H         1 UNK         0.0786 
    104 H104       27.1472   -1.5495   -1.7435 H         1 UNK         0.2977 
    105 H105       26.5308    1.1847   -5.7578 H         1 UNK         0.3127 
    106 H106       28.9247    2.6339   -6.1813 H         1 UNK         0.0770 
    107 H107       26.0779    3.6297   -5.6182 H         1 UNK         0.0814 
    108 H108       27.5450    4.5790   -5.4292 H         1 UNK         0.0814 
    109 H109       27.2770    3.1806   -4.4036 H         1 UNK         0.0814 
    110 H110       26.3366    1.9981   -8.4273 H         1 UNK         0.2983 
    111 H111       27.3525    4.0986  -10.3120 H         1 UNK         0.0947 
    112 H112       25.1777    3.7834  -11.4782 H         1 UNK         0.0806 
    113 H113       24.9257    4.3080   -9.8212 H         1 UNK         0.0806 
    114 H114       24.6638    2.6217  -10.2615 H         1 UNK         0.0806 
    115 H115       26.3686    0.6588   -9.9669 H         1 UNK         0.3000 
    116 H116       27.0285   -0.1029  -12.6143 H         1 UNK         0.0850 
    117 H117       26.6895   -2.4166  -11.7467 H         1 UNK         0.0810 
    118 H118       25.4175   -1.3396  -11.1916 H         1 UNK         0.0810 
    119 H119       26.7085   -1.8185  -10.0938 H         1 UNK         0.0810 
    120 H120       28.9454   -0.3193   -9.5938 H         1 UNK         0.3040 
    121 H121       31.3192   -1.2840  -11.1528 H         1 UNK         0.0766 
    122 H122       32.1788   -2.0613   -8.9720 H         1 UNK         0.0812 
    123 H123       30.6167   -2.7967   -9.2967 H         1 UNK         0.0812 
    124 H124       30.7470   -1.4660   -8.1467 H         1 UNK         0.0812 
    125 H125       30.1726    1.0075   -8.6667 H         1 UNK         0.3205 
    126 H126       30.8478    2.9698   -7.9035 H         1 UNK         0.0754 
    127 H127       31.8581    4.6245   -9.4221 H         1 UNK         0.0769 
    128 H128       30.6308    3.7116  -10.2822 H         1 UNK         0.0769 
    129 H129       32.3399    3.3649  -10.5501 H         1 UNK         0.0769 
    130 H130       32.2676    0.7384   -7.0538 H         1 UNK         0.2981 
    131 H131       35.0866    1.2839   -6.9198 H         1 UNK         0.0541 
    132 H132       32.5791    2.7981   -5.1244 H         1 UNK         0.3459 
    133 H133       33.5830    3.2792   -3.7796 H         1 UNK         0.3459 
    134 H134       35.1432   -0.7243   -5.4102 H         1 UNK         0.0612 
    135 H135       34.4100   -1.0029   -6.9633 H         1 UNK         0.0612 
    136 H136       33.0075   -3.0365   -6.6582 H         1 UNK         0.0624 
    137 H137       33.8635   -3.2703   -5.1497 H         1 UNK         0.0624 
@<TRIPOS>BOND
     1    1    2 1    
     2    1   72 1    
     3    1   73 1    
     4    1   74 1    
     5    2    3 2    
     6    2    4 am   BACKBONE|DICT|INTERRES
     7    4    5 1    
     8    4   75 1    
     9    5    6 1    
    10    5   35 1    
    11    5   76 1    
    12    6    7 1    
    13    6   77 1    
    14    6   78 1    
    15    7    8 1    
    16    8    9 1    
    17    8   79 1    
    18    8   80 1    
    19    9   10 ar   
    20    9   14 ar   
    21   10   11 ar   
    22   10   81 1    
    23   11   12 ar   
    24   11   71 1    
    25   12   13 ar   
    26   12   82 1    
    27   13   14 ar   
    28   13   15 1    
    29   14   83 1    
    30   15   16 1    
    31   15   84 1    
    32   15   85 1    
    33   16   17 1    
    34   17   18 1    
    35   17   86 1    
    36   17   87 1    
    37   18   19 1    
    38   18   37 1    
    39   18   88 1    
    40   19   20 am   BACKBONE|DICT|INTERRES
    41   19   89 1    
    42   20   21 2    
    43   20   22 1    
    44   22   23 1    
    45   22   24 1    
    46   22   90 1    
    47   23   91 1    
    48   23   92 1    
    49   23   93 1    
    50   24   25 am   BACKBONE|DICT|INTERRES
    51   24   94 1    
    52   25   26 2    
    53   25   27 1    
    54   27   28 1    
    55   27   29 1    
    56   27   95 1    
    57   28   96 1    
    58   28   97 1    
    59   28   98 1    
    60   29   30 am   BACKBONE|DICT|INTERRES
    61   29   99 1    
    62   30   31 2    
    63   30   32 1    
    64   32   33 1    
    65   32   34 1    
    66   32  100 1    
    67   33  101 1    
    68   33  102 1    
    69   33  103 1    
    70   34   35 am   BACKBONE|DICT|INTERRES
    71   34  104 1    
    72   35   36 2    
    73   37   38 2    
    74   37   39 am   BACKBONE|DICT|INTERRES
    75   39   40 1    
    76   39  105 1    
    77   40   41 1    
    78   40   42 1    
    79   40  106 1    
    80   41  107 1    
    81   41  108 1    
    82   41  109 1    
    83   42   43 2    
    84   42   44 am   BACKBONE|DICT|INTERRES
    85   44   45 1    
    86   44  110 1    
    87   45   46 1    
    88   45   47 1    
    89   45  111 1    
    90   46  112 1    
    91   46  113 1    
    92   46  114 1    
    93   47   48 2    
    94   47   49 am   BACKBONE|DICT|INTERRES
    95   49   50 1    
    96   49  115 1    
    97   50   51 1    
    98   50   52 1    
    99   50  116 1    
   100   51  117 1    
   101   51  118 1    
   102   51  119 1    
   103   52   53 2    
   104   52   54 am   BACKBONE|DICT|INTERRES
   105   54   55 1    
   106   54  120 1    
   107   55   56 1    
   108   55   57 1    
   109   55  121 1    
   110   56  122 1    
   111   56  123 1    
   112   56  124 1    
   113   57   58 2    
   114   57   59 am   BACKBONE|DICT|INTERRES
   115   59   60 1    
   116   59  125 1    
   117   60   61 1    
   118   60   62 1    
   119   60  126 1    
   120   61  127 1    
   121   61  128 1    
   122   61  129 1    
   123   62   63 2    
   124   62   64 am   BACKBONE|DICT|INTERRES
   125   64   65 1    
   126   64  130 1    
   127   65   66 1    
   128   65   69 1    
   129   65  131 1    
   130   66   67 am   BACKBONE|DICT|INTERRES
   131   66   68 2    
   132   67  132 1    
   133   67  133 1    
   134   69   70 1    
   135   69  134 1    
   136   69  135 1    
   137   70   71 1    
   138   71  136 1    
   139   71  137 1    
@<TRIPOS>SUBSTRUCTURE
     1 UNK         1 GROUP             0       ****    0 ROOT    
