@<TRIPOS>MOLECULE
3R137
137   139    1
SMALL
USER_CHARGES


@<TRIPOS>ATOM
      1 CA         24.1672   -0.3212   -6.8066 C.3       0 UNK        -0.2020 
      2 C          24.1407   -1.7552   -6.3017 C.2       0 UNK         0.4855 
      3 O          23.2375   -2.5168   -6.6492 O.2       0 UNK        -0.5197 
      4 N          25.1076   -2.1245   -5.4570 N.am      1 UNK        -0.4892 
      5 CA         25.2500   -3.4456   -4.8418 C.3       1 UNK         0.0835 
      6 C6         26.7324   -3.7727   -4.5321 C.3       12 UNK        -0.0855 
      7 S7         27.7348   -3.8721   -6.0516 S.3       12 UNK        -0.2931 
      8 C8         29.0280   -5.0504   -5.5569 C.3       12 UNK         0.0378 
      9 C9         30.1140   -4.3746   -4.7339 C.ar      12 UNK        -0.0802 
     10 C10        31.2215   -3.8113   -5.3753 C.ar      12 UNK        -0.0944 
     11 C11        32.2446   -3.2161   -4.6336 C.ar      12 UNK        -0.0787 
     12 C12        32.1491   -3.1772   -3.2404 C.ar      12 UNK        -0.0862 
     13 C13        31.0373   -3.7188   -2.5861 C.ar      12 UNK        -0.0733 
     14 C14        30.0263   -4.3262   -3.3380 C.ar      12 UNK        -0.0832 
     15 C15        30.9387   -3.6470   -1.0661 C.3       12 UNK         0.0240 
     16 S16        29.6947   -2.4415   -0.4881 S.3       12 UNK        -0.2522 
     17 C17        30.1555   -0.9352   -1.4094 C.3       12 UNK        -0.0967 
     18 CA         29.1168   -0.6490   -2.5252 C.3       5 UNK         0.0660 
     19 N          27.9159   -0.0067   -1.9809 N.am      5 UNK        -0.4015 
     20 C          26.7264    0.0753   -2.5880 C.2       4 UNK         0.4946 
     21 O          26.4723   -0.4284   -3.6862 O.2       4 UNK        -0.5353 
     22 CA         25.6535    0.9004   -1.8712 C.3       4 UNK         0.0277 
     23 CB         25.8938    2.4043   -2.1192 C.3       4 UNK        -0.1981 
     24 N          24.3465    0.4977   -2.3834 N.am      4 UNK        -0.4209 
     25 C          23.1559    0.8515   -1.8851 C.2       3 UNK         0.4942 
     26 O          23.0083    1.5538   -0.8841 O.2       3 UNK        -0.5208 
     27 CA         21.9157    0.3399   -2.6352 C.3       3 UNK         0.0250 
     28 CB         21.6580    1.1846   -3.8942 C.3       3 UNK        -0.1990 
     29 N          22.0249   -1.0724   -3.0054 N.am      3 UNK        -0.4232 
     30 C          21.8756   -2.0940   -2.1494 C.2       2 UNK         0.4993 
     31 O          21.6120   -1.9576   -0.9543 O.2       2 UNK        -0.5286 
     32 CA         22.0412   -3.5099   -2.7268 C.3       2 UNK         0.0209 
     33 CB         20.6998   -4.0374   -3.2616 C.3       2 UNK        -0.1931 
     34 N          23.0459   -3.5652   -3.7916 N.am      2 UNK        -0.4546 
     35 C          24.3670   -3.4984   -3.5818 C.2       1 UNK         0.5154 
     36 O          24.8748   -3.4354   -2.4605 O.2       1 UNK        -0.5181 
     37 C          29.7003    0.1755   -3.6909 C.2       5 UNK         0.5014 
     38 O          30.6884    0.8909   -3.5166 O.2       5 UNK        -0.5248 
     39 N          29.0477    0.0666   -4.8499 N.am      6 UNK        -0.4434 
     40 CA         29.4153    0.6612   -6.1233 C.3       6 UNK         0.0363 
     41 CB         29.0392    2.1556   -6.1486 C.3       6 UNK        -0.1936 
     42 C          28.6663   -0.1323   -7.1965 C.2       6 UNK         0.5081 
     43 O          27.4426   -0.0179   -7.2906 O.2       6 UNK        -0.5248 
     44 N          29.3929   -0.9354   -7.9809 N.am      7 UNK        -0.4718 
     45 CA         28.8517   -1.7827   -9.0489 C.3       7 UNK         0.0273 
     46 CB         29.8194   -2.9560   -9.2904 C.3       7 UNK        -0.1935 
     47 C          28.5799   -0.9635  -10.3250 C.2       7 UNK         0.5018 
     48 O          29.2255   -1.1861  -11.3503 O.2       7 UNK        -0.5186 
     49 N          27.6707    0.0166  -10.2072 N.am      8 UNK        -0.4240 
     50 CA         27.3214    1.0587  -11.1890 C.3       8 UNK         0.0235 
     51 CB         26.7663    0.4443  -12.4915 C.3       8 UNK        -0.2000 
     52 C          28.4525    2.0775  -11.4592 C.2       8 UNK         0.4941 
     53 O          28.3143    2.9215  -12.3459 O.2       8 UNK        -0.5273 
     54 N          29.5289    2.0047  -10.6725 N.am      9 UNK        -0.4262 
     55 CA         30.7072    2.8594  -10.6530 C.3       9 UNK         0.0264 
     56 CB         31.6293    2.5315  -11.8414 C.3       9 UNK        -0.1955 
     57 C          31.4059    2.5783   -9.3186 C.2       9 UNK         0.5031 
     58 O          31.1842    1.5112   -8.7367 O.2       9 UNK        -0.5390 
     59 N          32.2414    3.5128   -8.8510 N.am      10 UNK        -0.4204 
     60 CA         32.9185    3.4758   -7.5461 C.3       10 UNK         0.0237 
     61 CB         33.3704    4.9036   -7.1834 C.3       10 UNK        -0.1985 
     62 C          34.0682    2.4455   -7.4495 C.2       10 UNK         0.4970 
     63 O          35.1620    2.7872   -6.9961 O.2       10 UNK        -0.4914 
     64 N          33.7939    1.2058   -7.8718 N.am      11 UNK        -0.4285 
     65 CA         34.6649    0.0197   -7.8006 C.3       11 UNK         0.1007 
     66 C          35.9737    0.1068   -8.6454 C.2       11 UNK         0.5703 
     67 N          36.0736    1.0068   -9.6166 N.am      11 UNK        -0.7361 
     68 O          36.9010   -0.6753   -8.4477 O.2       11 UNK        -0.4986 
     69 C69        34.9107   -0.4461   -6.3362 C.3       12 UNK        -0.0947 
     70 S70        33.3541   -0.8239   -5.4580 S.3       12 UNK        -0.2240 
     71 C71        33.4628   -2.6333   -5.3327 C.3       12 UNK         0.0194 
     72 H72        24.8302    0.3043   -6.2081 H         1 UNK         0.0906 
     73 H73        24.5199   -0.2970   -7.8372 H         1 UNK         0.0906 
     74 H74        23.1686    0.1131   -6.7770 H         1 UNK         0.0906 
     75 H75        25.7753   -1.4331   -5.1224 H         1 UNK         0.3140 
     76 H76        24.8804   -4.2079   -5.5317 H         1 UNK         0.1085 
     77 H77        26.7993   -4.7251   -4.0033 H         1 UNK         0.0836 
     78 H78        27.1706   -3.0246   -3.8708 H         1 UNK         0.0836 
     79 H79        29.4660   -5.4819   -6.4583 H         1 UNK         0.0731 
     80 H80        28.5911   -5.8862   -5.0085 H         1 UNK         0.0731 
     81 H81        31.2925   -3.8457   -6.4533 H         1 UNK         0.1312 
     82 H82        32.9401   -2.7127   -2.6673 H         1 UNK         0.1406 
     83 H83        29.1693   -4.7535   -2.8351 H         1 UNK         0.1631 
     84 H84        31.9053   -3.3886   -0.6308 H         1 UNK         0.0717 
     85 H85        30.6839   -4.6323   -0.6733 H         1 UNK         0.0717 
     86 H86        30.2290   -0.0958   -0.7160 H         1 UNK         0.0934 
     87 H87        31.1610   -1.0593   -1.8128 H         1 UNK         0.0934 
     88 H88        28.8210   -1.6064   -2.9591 H         1 UNK         0.0739 
     89 H89        28.0349    0.4565   -1.0921 H         1 UNK         0.3093 
     90 H90        25.6946    0.6839   -0.8017 H         1 UNK         0.0818 
     91 H91        26.8841    2.7088   -1.7783 H         1 UNK         0.0819 
     92 H92        25.8250    2.6505   -3.1797 H         1 UNK         0.0819 
     93 H93        25.1721    3.0228   -1.5860 H         1 UNK         0.0819 
     94 H94        24.3994   -0.1121   -3.1890 H         1 UNK         0.3041 
     95 H95        21.0549    0.4549   -1.9724 H         1 UNK         0.0784 
     96 H96        21.5295    2.2366   -3.6354 H         1 UNK         0.0793 
     97 H97        22.4849    1.1244   -4.6021 H         1 UNK         0.0793 
     98 H98        20.7506    0.8662   -4.4078 H         1 UNK         0.0793 
     99 H99        22.2225   -1.2840   -3.9720 H         1 UNK         0.3024 
    100 H100       22.3644   -4.1607   -1.9105 H         1 UNK         0.1171 
    101 H101       20.3293   -3.4362   -4.0929 H         1 UNK         0.0786 
    102 H102       20.7883   -5.0681   -3.6058 H         1 UNK         0.0786 
    103 H103       19.9364   -4.0222   -2.4822 H         1 UNK         0.0786 
    104 H104       22.7153   -3.5673   -4.7499 H         1 UNK         0.2977 
    105 H105       28.1854   -0.4703   -4.8622 H         1 UNK         0.3127 
    106 H106       30.4920    0.5561   -6.2739 H         1 UNK         0.0770 
    107 H107       29.2243    2.5890   -7.1314 H         1 UNK         0.0814 
    108 H108       29.6261    2.7246   -5.4278 H         1 UNK         0.0814 
    109 H109       27.9842    2.3089   -5.9178 H         1 UNK         0.0814 
    110 H110       30.3979   -0.9258   -7.8786 H         1 UNK         0.2983 
    111 H111       27.8971   -2.2023   -8.7223 H         1 UNK         0.0947 
    112 H112       29.4523   -3.6081  -10.0840 H         1 UNK         0.0806 
    113 H113       29.9244   -3.5695   -8.3964 H         1 UNK         0.0806 
    114 H114       30.8119   -2.6106   -9.5825 H         1 UNK         0.0806 
    115 H115       27.2522    0.1240   -9.2864 H         1 UNK         0.3000 
    116 H116       26.5146    1.6327  -10.7308 H         1 UNK         0.0850 
    117 H117       27.5379   -0.0796  -13.0561 H         1 UNK         0.0810 
    118 H118       26.3594    1.2171  -13.1448 H         1 UNK         0.0810 
    119 H119       25.9611   -0.2612  -12.2866 H         1 UNK         0.0810 
    120 H120       29.5610    1.2905   -9.9539 H         1 UNK         0.3040 
    121 H121       30.3958    3.9052  -10.6873 H         1 UNK         0.0766 
    122 H122       31.1315    2.7142  -12.7938 H         1 UNK         0.0812 
    123 H123       31.9466    1.4877  -11.8265 H         1 UNK         0.0812 
    124 H124       32.5285    3.1483  -11.8248 H         1 UNK         0.0812 
    125 H125       32.4012    4.3382   -9.4111 H         1 UNK         0.3205 
    126 H126       32.1805    3.1717   -6.8002 H         1 UNK         0.0754 
    127 H127       33.8093    4.9357   -6.1851 H         1 UNK         0.0769 
    128 H128       32.5304    5.5987   -7.1838 H         1 UNK         0.0769 
    129 H129       34.1192    5.2791   -7.8820 H         1 UNK         0.0769 
    130 H130       32.8547    1.0484   -8.2307 H         1 UNK         0.2981 
    131 H131       34.0962   -0.7721   -8.2893 H         1 UNK         0.0541 
    132 H132       35.3208    1.6518   -9.7928 H         1 UNK         0.3459 
    133 H133       36.9174    1.0491  -10.1660 H         1 UNK         0.3459 
    134 H134       35.4456    0.3212   -5.7748 H         1 UNK         0.0612 
    135 H135       35.5479   -1.3315   -6.3128 H         1 UNK         0.0612 
    136 H136       34.3650   -2.9046   -4.7823 H         1 UNK         0.0624 
    137 H137       33.5689   -3.0566   -6.3328 H         1 UNK         0.0624 
@<TRIPOS>BOND
     1    1    2 1    
     2    1   72 1    
     3    1   73 1    
     4    1   74 1    
     5    2    3 2    
     6    2    4 am   BACKBONE|DICT|INTERRES
     7    4    5 1    
     8    4   75 1    
     9    5    6 1    
    10    5   35 1    
    11    5   76 1    
    12    6    7 1    
    13    6   77 1    
    14    6   78 1    
    15    7    8 1    
    16    8    9 1    
    17    8   79 1    
    18    8   80 1    
    19    9   10 ar   
    20    9   14 ar   
    21   10   11 ar   
    22   10   81 1    
    23   11   12 ar   
    24   11   71 1    
    25   12   13 ar   
    26   12   82 1    
    27   13   14 ar   
    28   13   15 1    
    29   14   83 1    
    30   15   16 1    
    31   15   84 1    
    32   15   85 1    
    33   16   17 1    
    34   17   18 1    
    35   17   86 1    
    36   17   87 1    
    37   18   19 1    
    38   18   37 1    
    39   18   88 1    
    40   19   20 am   BACKBONE|DICT|INTERRES
    41   19   89 1    
    42   20   21 2    
    43   20   22 1    
    44   22   23 1    
    45   22   24 1    
    46   22   90 1    
    47   23   91 1    
    48   23   92 1    
    49   23   93 1    
    50   24   25 am   BACKBONE|DICT|INTERRES
    51   24   94 1    
    52   25   26 2    
    53   25   27 1    
    54   27   28 1    
    55   27   29 1    
    56   27   95 1    
    57   28   96 1    
    58   28   97 1    
    59   28   98 1    
    60   29   30 am   BACKBONE|DICT|INTERRES
    61   29   99 1    
    62   30   31 2    
    63   30   32 1    
    64   32   33 1    
    65   32   34 1    
    66   32  100 1    
    67   33  101 1    
    68   33  102 1    
    69   33  103 1    
    70   34   35 am   BACKBONE|DICT|INTERRES
    71   34  104 1    
    72   35   36 2    
    73   37   38 2    
    74   37   39 am   BACKBONE|DICT|INTERRES
    75   39   40 1    
    76   39  105 1    
    77   40   41 1    
    78   40   42 1    
    79   40  106 1    
    80   41  107 1    
    81   41  108 1    
    82   41  109 1    
    83   42   43 2    
    84   42   44 am   BACKBONE|DICT|INTERRES
    85   44   45 1    
    86   44  110 1    
    87   45   46 1    
    88   45   47 1    
    89   45  111 1    
    90   46  112 1    
    91   46  113 1    
    92   46  114 1    
    93   47   48 2    
    94   47   49 am   BACKBONE|DICT|INTERRES
    95   49   50 1    
    96   49  115 1    
    97   50   51 1    
    98   50   52 1    
    99   50  116 1    
   100   51  117 1    
   101   51  118 1    
   102   51  119 1    
   103   52   53 2    
   104   52   54 am   BACKBONE|DICT|INTERRES
   105   54   55 1    
   106   54  120 1    
   107   55   56 1    
   108   55   57 1    
   109   55  121 1    
   110   56  122 1    
   111   56  123 1    
   112   56  124 1    
   113   57   58 2    
   114   57   59 am   BACKBONE|DICT|INTERRES
   115   59   60 1    
   116   59  125 1    
   117   60   61 1    
   118   60   62 1    
   119   60  126 1    
   120   61  127 1    
   121   61  128 1    
   122   61  129 1    
   123   62   63 2    
   124   62   64 am   BACKBONE|DICT|INTERRES
   125   64   65 1    
   126   64  130 1    
   127   65   66 1    
   128   65   69 1    
   129   65  131 1    
   130   66   67 am   BACKBONE|DICT|INTERRES
   131   66   68 2    
   132   67  132 1    
   133   67  133 1    
   134   69   70 1    
   135   69  134 1    
   136   69  135 1    
   137   70   71 1    
   138   71  136 1    
   139   71  137 1    
@<TRIPOS>SUBSTRUCTURE
     1 UNK         1 GROUP             0       ****    0 ROOT    
