@<TRIPOS>MOLECULE
3R137
137   139    1
SMALL
USER_CHARGES


@<TRIPOS>ATOM
      1 CA         29.7958   -5.7248   -4.8032 C.3       0 UNK        -0.2020 
      2 C          28.7686   -5.7664   -3.6814 C.2       0 UNK         0.4855 
      3 O          28.3204   -6.8489   -3.3035 O.2       0 UNK        -0.5197 
      4 N          28.3883   -4.6010   -3.1487 N.am      1 UNK        -0.4892 
      5 CA         27.3855   -4.4337   -2.1008 C.3       1 UNK         0.0835 
      6 C6         27.9344   -4.7816   -0.6859 C.3       12 UNK        -0.0855 
      7 S7         28.8648   -3.4841    0.2063 S.3       12 UNK        -0.2931 
      8 C8         30.4633   -3.4430   -0.6726 C.3       12 UNK         0.0378 
      9 C9         30.5544   -2.2793   -1.6548 C.ar      12 UNK        -0.0802 
     10 C10        30.9235   -2.4958   -2.9851 C.ar      12 UNK        -0.0944 
     11 C11        31.0353   -1.4246   -3.8779 C.ar      12 UNK        -0.0787 
     12 C12        30.7878   -0.1232   -3.4289 C.ar      12 UNK        -0.0862 
     13 C13        30.4145    0.1089   -2.0995 C.ar      12 UNK        -0.0733 
     14 C14        30.3080   -0.9733   -1.2214 C.ar      12 UNK        -0.0832 
     15 C15        30.1320    1.5165   -1.5789 C.3       12 UNK         0.0240 
     16 S16        29.0602    2.5330   -2.6525 S.3       12 UNK        -0.2522 
     17 C17        27.6839    1.4096   -3.0754 C.3       12 UNK        -0.0967 
     18 CA         27.5441    1.2874   -4.6162 C.3       5 UNK         0.0660 
     19 N          27.2294   -0.0734   -5.0525 N.am      5 UNK        -0.4015 
     20 C          27.2503   -0.4842   -6.3291 C.2       4 UNK         0.4946 
     21 O          27.6239    0.2143   -7.2718 O.2       4 UNK        -0.5353 
     22 CA         26.7200   -1.8990   -6.6078 C.3       4 UNK         0.0277 
     23 CB         27.8251   -2.9479   -6.4084 C.3       4 UNK        -0.1981 
     24 N          25.5642   -2.2207   -5.7661 N.am      4 UNK        -0.4209 
     25 C          24.3584   -1.6458   -5.8926 C.2       3 UNK         0.4942 
     26 O          24.0797   -0.8294   -6.7692 O.2       3 UNK        -0.5208 
     27 CA         23.2972   -2.0076   -4.8396 C.3       3 UNK         0.0250 
     28 CB         22.5842   -3.3160   -5.2158 C.3       3 UNK        -0.1990 
     29 N          23.8501   -2.1179   -3.4873 N.am      3 UNK        -0.4232 
     30 C          24.3869   -1.0993   -2.7992 C.2       2 UNK         0.4993 
     31 O          24.4367    0.0580   -3.2135 O.2       2 UNK        -0.5286 
     32 CA         25.0347   -1.4422   -1.4474 C.3       2 UNK         0.0209 
     33 CB         23.9883   -1.4188   -0.3223 C.3       2 UNK        -0.1931 
     34 N          25.7362   -2.7323   -1.4453 N.am      2 UNK        -0.4546 
     35 C          26.7715   -3.0279   -2.2438 C.2       1 UNK         0.5154 
     36 O          27.2164   -2.2465   -3.0920 O.2       1 UNK        -0.5181 
     37 C          26.5439    2.3165   -5.1822 C.2       5 UNK         0.5014 
     38 O          26.9691    3.3300   -5.7366 O.2       5 UNK        -0.5248 
     39 N          25.2389    2.0204   -5.0773 N.am      6 UNK        -0.4434 
     40 CA         24.1453    2.8299   -5.6269 C.3       6 UNK         0.0363 
     41 CB         22.7963    2.2526   -5.1705 C.3       6 UNK        -0.1936 
     42 C          24.1903    2.9551   -7.1604 C.2       6 UNK         0.5081 
     43 O          23.8997    4.0284   -7.6886 O.2       6 UNK        -0.5248 
     44 N          24.5893    1.8741   -7.8442 N.am      7 UNK        -0.4718 
     45 CA         24.8433    1.8405   -9.2880 C.3       7 UNK         0.0273 
     46 CB         24.8610    0.3755   -9.7551 C.3       7 UNK        -0.1935 
     47 C          26.1471    2.5497   -9.7076 C.2       7 UNK         0.5018 
     48 O          26.3495    2.7503  -10.9060 O.2       7 UNK        -0.5186 
     49 N          27.0024    2.8988   -8.7337 N.am      8 UNK        -0.4240 
     50 CA         28.3311    3.5025   -8.8731 C.3       8 UNK         0.0235 
     51 CB         28.2311    4.9333   -9.4444 C.3       8 UNK        -0.2000 
     52 C          29.3105    2.6016   -9.6485 C.2       8 UNK         0.4941 
     53 O          30.0470    3.0888  -10.5097 O.2       8 UNK        -0.5273 
     54 N          29.2949    1.2974   -9.3382 N.am      9 UNK        -0.4262 
     55 CA         30.1796    0.2959   -9.9318 C.3       9 UNK         0.0264 
     56 CB         29.6972   -1.1072   -9.5317 C.3       9 UNK        -0.1955 
     57 C          31.6358    0.5007   -9.4864 C.2       9 UNK         0.5031 
     58 O          31.8920    0.6767   -8.2922 O.2       9 UNK        -0.5390 
     59 N          32.5698    0.4195  -10.4412 N.am      10 UNK        -0.4204 
     60 CA         34.0144    0.4934  -10.2099 C.3       10 UNK         0.0237 
     61 CB         34.7029    0.9923  -11.4948 C.3       10 UNK        -0.1985 
     62 C          34.5577   -0.8661   -9.7319 C.2       10 UNK         0.4970 
     63 O          35.3366   -1.5058  -10.4410 O.2       10 UNK        -0.4914 
     64 N          34.0987   -1.2997   -8.5527 N.am      11 UNK        -0.4285 
     65 CA         34.4373   -2.5909   -7.9366 C.3       11 UNK         0.1007 
     66 C          35.8875   -2.7119   -7.3787 C.2       11 UNK         0.5703 
     67 N          36.6558   -1.6334   -7.2777 N.am      11 UNK        -0.7361 
     68 O          36.3273   -3.8104   -7.0468 O.2       11 UNK        -0.4986 
     69 C69        33.3619   -3.0239   -6.9060 C.3       12 UNK        -0.0947 
     70 S70        33.2319   -1.9179   -5.4572 S.3       12 UNK        -0.2240 
     71 C71        31.4339   -1.6837   -5.3222 C.3       12 UNK         0.0194 
     72 H72        29.9983   -4.7090   -5.1367 H         1 UNK         0.0906 
     73 H73        30.7336   -6.1679   -4.4697 H         1 UNK         0.0906 
     74 H74        29.4369   -6.2928   -5.6611 H         1 UNK         0.0906 
     75 H75        28.7360   -3.7157   -3.4975 H         1 UNK         0.3140 
     76 H76        26.5739   -5.1305   -2.3234 H         1 UNK         0.1085 
     77 H77        27.0930   -5.0473   -0.0442 H         1 UNK         0.0836 
     78 H78        28.5446   -5.6854   -0.7246 H         1 UNK         0.0836 
     79 H79        30.6363   -4.3973   -1.1723 H         1 UNK         0.0731 
     80 H80        31.2612   -3.3349    0.0631 H         1 UNK         0.0731 
     81 H81        31.1444   -3.4977   -3.3250 H         1 UNK         0.1312 
     82 H82        30.8812    0.7082   -4.1139 H         1 UNK         0.1406 
     83 H83        30.0311   -0.8029   -0.1897 H         1 UNK         0.1631 
     84 H84        31.0815    2.0354   -1.4426 H         1 UNK         0.0717 
     85 H85        29.6650    1.4710   -0.5937 H         1 UNK         0.0717 
     86 H86        27.8633    0.4318   -2.6277 H         1 UNK         0.0934 
     87 H87        26.7677    1.7688   -2.6019 H         1 UNK         0.0934 
     88 H88        28.5116    1.5088   -5.0734 H         1 UNK         0.0739 
     89 H89        26.9831   -0.7442   -4.3307 H         1 UNK         0.3093 
     90 H90        26.3979   -1.9386   -7.6505 H         1 UNK         0.0818 
     91 H91        28.2786   -2.8721   -5.4215 H         1 UNK         0.0819 
     92 H92        27.4434   -3.9616   -6.5307 H         1 UNK         0.0819 
     93 H93        28.6227   -2.8153   -7.1386 H         1 UNK         0.0819 
     94 H94        25.7246   -2.8462   -4.9905 H         1 UNK         0.3041 
     95 H95        22.5555   -1.2060   -4.8312 H         1 UNK         0.0784 
     96 H96        22.1485   -3.2482   -6.2138 H         1 UNK         0.0793 
     97 H97        23.2670   -4.1665   -5.2156 H         1 UNK         0.0793 
     98 H98        21.7708   -3.5374   -4.5244 H         1 UNK         0.0793 
     99 H99        23.8475   -3.0336   -3.0624 H         1 UNK         0.3024 
    100 H100       25.7756   -0.6662   -1.2412 H         1 UNK         0.1171 
    101 H101       23.4668   -0.4607   -0.2953 H         1 UNK         0.0786 
    102 H102       24.4528   -1.5593    0.6540 H         1 UNK         0.0786 
    103 H103       23.2348   -2.1966   -0.4518 H         1 UNK         0.0786 
    104 H104       25.4300   -3.4144   -0.7662 H         1 UNK         0.2977 
    105 H105       24.9676    1.1946   -4.5445 H         1 UNK         0.3127 
    106 H106       24.2433    3.8354   -5.2124 H         1 UNK         0.0770 
    107 H107       22.6467    1.2382   -5.5410 H         1 UNK         0.0814 
    108 H108       21.9676    2.8599   -5.5369 H         1 UNK         0.0814 
    109 H109       22.7234    2.2255   -4.0832 H         1 UNK         0.0814 
    110 H110       24.7257    1.0028   -7.3400 H         1 UNK         0.2983 
    111 H111       24.0208    2.3516   -9.7930 H         1 UNK         0.0947 
    112 H112       24.9970    0.3089  -10.8353 H         1 UNK         0.0806 
    113 H113       23.9253   -0.1298   -9.5151 H         1 UNK         0.0806 
    114 H114       25.6731   -0.1834   -9.2892 H         1 UNK         0.0806 
    115 H115       26.7365    2.6795   -7.7807 H         1 UNK         0.3000 
    116 H116       28.7343    3.5811   -7.8624 H         1 UNK         0.0850 
    117 H117       29.2030    5.4278   -9.4294 H         1 UNK         0.0810 
    118 H118       27.5472    5.5462   -8.8572 H         1 UNK         0.0810 
    119 H119       27.8821    4.9351  -10.4774 H         1 UNK         0.0810 
    120 H120       28.6742    0.9737   -8.5972 H         1 UNK         0.3040 
    121 H121       30.1142    0.3901  -11.0178 H         1 UNK         0.0766 
    122 H122       28.6576   -1.2694   -9.8173 H         1 UNK         0.0812 
    123 H123       29.7770   -1.2587   -8.4549 H         1 UNK         0.0812 
    124 H124       30.2949   -1.8809  -10.0152 H         1 UNK         0.0812 
    125 H125       32.2778    0.2377  -11.3911 H         1 UNK         0.3205 
    126 H126       34.2155    1.2228   -9.4220 H         1 UNK         0.0754 
    127 H127       35.7810    1.0777  -11.3519 H         1 UNK         0.0769 
    128 H128       34.3373    1.9785  -11.7820 H         1 UNK         0.0769 
    129 H129       34.5372    0.3159  -12.3344 H         1 UNK         0.0769 
    130 H130       33.4426   -0.7147   -8.0466 H         1 UNK         0.2981 
    131 H131       34.3933   -3.3283   -8.7405 H         1 UNK         0.0541 
    132 H132       36.3016   -0.7287   -7.5420 H         1 UNK         0.3459 
    133 H133       37.5938   -1.7262   -6.9213 H         1 UNK         0.3459 
    134 H134       32.3943   -3.0801   -7.4070 H         1 UNK         0.0612 
    135 H135       33.5631   -4.0341   -6.5454 H         1 UNK         0.0612 
    136 H136       30.9128   -2.5704   -5.6826 H         1 UNK         0.0624 
    137 H137       31.1253   -0.8598   -5.9681 H         1 UNK         0.0624 
@<TRIPOS>BOND
     1    1    2 1    
     2    1   72 1    
     3    1   73 1    
     4    1   74 1    
     5    2    3 2    
     6    2    4 am   BACKBONE|DICT|INTERRES
     7    4    5 1    
     8    4   75 1    
     9    5    6 1    
    10    5   35 1    
    11    5   76 1    
    12    6    7 1    
    13    6   77 1    
    14    6   78 1    
    15    7    8 1    
    16    8    9 1    
    17    8   79 1    
    18    8   80 1    
    19    9   10 ar   
    20    9   14 ar   
    21   10   11 ar   
    22   10   81 1    
    23   11   12 ar   
    24   11   71 1    
    25   12   13 ar   
    26   12   82 1    
    27   13   14 ar   
    28   13   15 1    
    29   14   83 1    
    30   15   16 1    
    31   15   84 1    
    32   15   85 1    
    33   16   17 1    
    34   17   18 1    
    35   17   86 1    
    36   17   87 1    
    37   18   19 1    
    38   18   37 1    
    39   18   88 1    
    40   19   20 am   BACKBONE|DICT|INTERRES
    41   19   89 1    
    42   20   21 2    
    43   20   22 1    
    44   22   23 1    
    45   22   24 1    
    46   22   90 1    
    47   23   91 1    
    48   23   92 1    
    49   23   93 1    
    50   24   25 am   BACKBONE|DICT|INTERRES
    51   24   94 1    
    52   25   26 2    
    53   25   27 1    
    54   27   28 1    
    55   27   29 1    
    56   27   95 1    
    57   28   96 1    
    58   28   97 1    
    59   28   98 1    
    60   29   30 am   BACKBONE|DICT|INTERRES
    61   29   99 1    
    62   30   31 2    
    63   30   32 1    
    64   32   33 1    
    65   32   34 1    
    66   32  100 1    
    67   33  101 1    
    68   33  102 1    
    69   33  103 1    
    70   34   35 am   BACKBONE|DICT|INTERRES
    71   34  104 1    
    72   35   36 2    
    73   37   38 2    
    74   37   39 am   BACKBONE|DICT|INTERRES
    75   39   40 1    
    76   39  105 1    
    77   40   41 1    
    78   40   42 1    
    79   40  106 1    
    80   41  107 1    
    81   41  108 1    
    82   41  109 1    
    83   42   43 2    
    84   42   44 am   BACKBONE|DICT|INTERRES
    85   44   45 1    
    86   44  110 1    
    87   45   46 1    
    88   45   47 1    
    89   45  111 1    
    90   46  112 1    
    91   46  113 1    
    92   46  114 1    
    93   47   48 2    
    94   47   49 am   BACKBONE|DICT|INTERRES
    95   49   50 1    
    96   49  115 1    
    97   50   51 1    
    98   50   52 1    
    99   50  116 1    
   100   51  117 1    
   101   51  118 1    
   102   51  119 1    
   103   52   53 2    
   104   52   54 am   BACKBONE|DICT|INTERRES
   105   54   55 1    
   106   54  120 1    
   107   55   56 1    
   108   55   57 1    
   109   55  121 1    
   110   56  122 1    
   111   56  123 1    
   112   56  124 1    
   113   57   58 2    
   114   57   59 am   BACKBONE|DICT|INTERRES
   115   59   60 1    
   116   59  125 1    
   117   60   61 1    
   118   60   62 1    
   119   60  126 1    
   120   61  127 1    
   121   61  128 1    
   122   61  129 1    
   123   62   63 2    
   124   62   64 am   BACKBONE|DICT|INTERRES
   125   64   65 1    
   126   64  130 1    
   127   65   66 1    
   128   65   69 1    
   129   65  131 1    
   130   66   67 am   BACKBONE|DICT|INTERRES
   131   66   68 2    
   132   67  132 1    
   133   67  133 1    
   134   69   70 1    
   135   69  134 1    
   136   69  135 1    
   137   70   71 1    
   138   71  136 1    
   139   71  137 1    
@<TRIPOS>SUBSTRUCTURE
     1 UNK         1 GROUP             0       ****    0 ROOT    
