@<TRIPOS>MOLECULE
3R137
137   139    1
SMALL
USER_CHARGES


@<TRIPOS>ATOM
      1 CA         27.9348   -7.0302   -0.6505 C.3       0 UNK        -0.2020 
      2 C          27.3522   -6.0610   -1.6685 C.2       0 UNK         0.4855 
      3 O          26.2656   -6.3118   -2.1895 O.2       0 UNK        -0.5197 
      4 N          28.0725   -4.9641   -1.9455 N.am      1 UNK        -0.4892 
      5 CA         27.7220   -3.8886   -2.8862 C.3       1 UNK         0.0835 
      6 C6         27.7008   -4.3345   -4.3781 C.3       12 UNK        -0.0855 
      7 S7         29.2253   -5.1769   -4.9376 S.3       12 UNK        -0.2931 
      8 C8         30.0926   -3.8722   -5.8693 C.3       12 UNK         0.0378 
      9 C9         30.8821   -2.9677   -4.9370 C.ar      12 UNK        -0.0802 
     10 C10        32.2149   -3.2581   -4.6327 C.ar      12 UNK        -0.0944 
     11 C11        32.9375   -2.4379   -3.7616 C.ar      12 UNK        -0.0787 
     12 C12        32.3000   -1.3459   -3.1639 C.ar      12 UNK        -0.0862 
     13 C13        30.9645   -1.0463   -3.4493 C.ar      12 UNK        -0.0733 
     14 C14        30.2732   -1.8495   -4.3652 C.ar      12 UNK        -0.0832 
     15 C15        30.3171    0.1370   -2.7297 C.3       12 UNK         0.0240 
     16 S16        28.4892    0.1470   -2.7424 S.3       12 UNK        -0.2522 
     17 C17        28.1083    1.4331   -3.9773 C.3       12 UNK        -0.0967 
     18 CA         27.6443    0.8650   -5.3400 C.3       5 UNK         0.0660 
     19 N          26.4139    0.0652   -5.2365 N.am      5 UNK        -0.4015 
     20 C          25.7999   -0.5381   -6.2679 C.2       4 UNK         0.4946 
     21 O          26.2410   -0.5188   -7.4165 O.2       4 UNK        -0.5353 
     22 CA         24.4568   -1.2442   -6.0221 C.3       4 UNK         0.0277 
     23 CB         24.5333   -2.7318   -6.4041 C.3       4 UNK        -0.1981 
     24 N          23.9508   -1.1027   -4.6542 N.am      4 UNK        -0.4209 
     25 C          23.2954   -0.0217   -4.2036 C.2       3 UNK         0.4942 
     26 O          23.1138    0.9888   -4.8841 O.2       3 UNK        -0.5208 
     27 CA         22.7448   -0.0575   -2.7654 C.3       3 UNK         0.0250 
     28 CB         21.2412   -0.3781   -2.7780 C.3       3 UNK        -0.1990 
     29 N          23.4302   -1.0150   -1.8944 N.am      3 UNK        -0.4232 
     30 C          24.6692   -0.8504   -1.4133 C.2       2 UNK         0.4993 
     31 O          25.3487    0.1523   -1.6304 O.2       2 UNK        -0.5286 
     32 CA         25.2633   -1.9951   -0.5650 C.3       2 UNK         0.0209 
     33 CB         24.2271   -3.0542   -0.1222 C.3       2 UNK        -0.1931 
     34 N          26.3980   -2.6546   -1.2270 N.am      2 UNK        -0.4546 
     35 C          26.4149   -3.1787   -2.4633 C.2       1 UNK         0.5154 
     36 O          25.4496   -3.1452   -3.2295 O.2       1 UNK        -0.5181 
     37 C          27.5287    2.0154   -6.3610 C.2       5 UNK         0.5014 
     38 O          28.4975    2.2810   -7.0725 O.2       5 UNK        -0.5248 
     39 N          26.3521    2.6543   -6.4353 N.am      6 UNK        -0.4434 
     40 CA         26.0526    3.7242   -7.3898 C.3       6 UNK         0.0363 
     41 CB         24.7557    4.4321   -6.9662 C.3       6 UNK        -0.1936 
     42 C          25.9446    3.2306   -8.8438 C.2       6 UNK         0.5081 
     43 O          26.2854    3.9800   -9.7586 O.2       6 UNK        -0.5248 
     44 N          25.4787    1.9886   -9.0341 N.am      7 UNK        -0.4718 
     45 CA         25.3600    1.3423  -10.3428 C.3       7 UNK         0.0273 
     46 CB         24.2842    0.2451  -10.2795 C.3       7 UNK        -0.1935 
     47 C          26.7040    0.7636  -10.8086 C.2       7 UNK         0.5018 
     48 O          27.0554    0.9086  -11.9798 O.2       7 UNK        -0.5186 
     49 N          27.4332    0.1312   -9.8793 N.am      8 UNK        -0.4240 
     50 CA         28.7540   -0.4588  -10.1037 C.3       8 UNK         0.0235 
     51 CB         29.0732   -1.4086   -8.9367 C.3       8 UNK        -0.2000 
     52 C          29.8780    0.5811  -10.2673 C.2       8 UNK         0.4941 
     53 O          30.9111    0.2462  -10.8475 O.2       8 UNK        -0.5273 
     54 N          29.6600    1.8006   -9.7482 N.am      9 UNK        -0.4262 
     55 CA         30.6281    2.8925   -9.5845 C.3       9 UNK         0.0264 
     56 CB         31.1702    3.3907  -10.9417 C.3       9 UNK        -0.1955 
     57 C          31.7284    2.4933   -8.5832 C.2       9 UNK         0.5031 
     58 O          32.9184    2.5708   -8.8963 O.2       9 UNK        -0.5390 
     59 N          31.2789    2.0512   -7.3997 N.am      10 UNK        -0.4204 
     60 CA         32.0510    1.4314   -6.3191 C.3       10 UNK         0.0237 
     61 CB         33.0285    2.4417   -5.6762 C.3       10 UNK        -0.1985 
     62 C          32.6981    0.1060   -6.7715 C.2       10 UNK         0.4970 
     63 O          32.0575   -0.6551   -7.4986 O.2       10 UNK        -0.4914 
     64 N          33.9186   -0.1741   -6.3003 N.am      11 UNK        -0.4285 
     65 CA         34.6568   -1.4115   -6.5843 C.3       11 UNK         0.1007 
     66 C          35.1141   -1.5094   -8.0647 C.2       11 UNK         0.5703 
     67 N          35.0567   -2.6945   -8.6581 N.am      11 UNK        -0.7361 
     68 O          35.5701   -0.5349   -8.6600 O.2       11 UNK        -0.4986 
     69 C69        35.8603   -1.6116   -5.6241 C.3       12 UNK        -0.0947 
     70 S70        35.4996   -1.3483   -3.8523 S.3       12 UNK        -0.2240 
     71 C71        34.3967   -2.7419   -3.4426 C.3       12 UNK         0.0194 
     72 H72        28.0727   -8.0113   -1.1041 H         1 UNK         0.0906 
     73 H73        28.8996   -6.6948   -0.2704 H         1 UNK         0.0906 
     74 H74        27.2564   -7.1383    0.1955 H         1 UNK         0.0906 
     75 H75        28.9608   -4.8426   -1.4790 H         1 UNK         0.3140 
     76 H76        28.5065   -3.1403   -2.7798 H         1 UNK         0.1085 
     77 H77        27.5154   -3.4747   -5.0236 H         1 UNK         0.0836 
     78 H78        26.8694   -5.0199   -4.5530 H         1 UNK         0.0836 
     79 H79        30.7694   -4.3429   -6.5841 H         1 UNK         0.0731 
     80 H80        29.3850   -3.2927   -6.4643 H         1 UNK         0.0731 
     81 H81        32.6889   -4.1222   -5.0777 H         1 UNK         0.1312 
     82 H82        32.8513   -0.7265   -2.4691 H         1 UNK         0.1406 
     83 H83        29.2446   -1.6402   -4.6147 H         1 UNK         0.1631 
     84 H84        30.7157    1.0664   -3.1361 H         1 UNK         0.0717 
     85 H85        30.6249    0.1147   -1.6832 H         1 UNK         0.0717 
     86 H86        28.9785    2.0799   -4.1038 H         1 UNK         0.0934 
     87 H87        27.3313    2.0717   -3.5517 H         1 UNK         0.0934 
     88 H88        28.4235    0.2017   -5.7183 H         1 UNK         0.0739 
     89 H89        26.0008   -0.0044   -4.3165 H         1 UNK         0.3093 
     90 H90        23.7383   -0.7777   -6.6998 H         1 UNK         0.0818 
     91 H91        23.5694   -3.2243   -6.2765 H         1 UNK         0.0819 
     92 H92        24.8200   -2.8517   -7.4499 H         1 UNK         0.0819 
     93 H93        25.2659   -3.2713   -5.8068 H         1 UNK         0.0819 
     94 H94        24.1479   -1.8733   -4.0207 H         1 UNK         0.3041 
     95 H95        22.8753    0.9414   -2.3433 H         1 UNK         0.0784 
     96 H96        20.6947    0.3374   -3.3942 H         1 UNK         0.0793 
     97 H97        21.0429   -1.3725   -3.1803 H         1 UNK         0.0793 
     98 H98        20.8160   -0.3293   -1.7753 H         1 UNK         0.0793 
     99 H99        22.9452   -1.8764   -1.6880 H         1 UNK         0.3024 
    100 H100       25.6570   -1.5216    0.3361 H         1 UNK         0.1171 
    101 H101       24.6781   -3.7751    0.5599 H         1 UNK         0.0786 
    102 H102       23.8227   -3.6164   -0.9650 H         1 UNK         0.0786 
    103 H103       23.3920   -2.5961    0.4098 H         1 UNK         0.0786 
    104 H104       27.2452   -2.7130   -0.6795 H         1 UNK         0.2977 
    105 H105       25.6037    2.3703   -5.8183 H         1 UNK         0.3127 
    106 H106       26.8670    4.4513   -7.3499 H         1 UNK         0.0770 
    107 H107       23.9052    3.7490   -6.9597 H         1 UNK         0.0814 
    108 H108       24.5146    5.2467   -7.6508 H         1 UNK         0.0814 
    109 H109       24.8468    4.8652   -5.9699 H         1 UNK         0.0814 
    110 H110       25.2781    1.4162   -8.2259 H         1 UNK         0.2983 
    111 H111       25.0425    2.0851  -11.0784 H         1 UNK         0.0947 
    112 H112       24.1618   -0.2350  -11.2513 H         1 UNK         0.0806 
    113 H113       23.3149    0.6569   -9.9982 H         1 UNK         0.0806 
    114 H114       24.5378   -0.5355   -9.5613 H         1 UNK         0.0806 
    115 H115       27.0300    0.0020   -8.9517 H         1 UNK         0.3000 
    116 H116       28.7123   -1.0458  -11.0236 H         1 UNK         0.0850 
    117 H117       30.0329   -1.9050   -9.0875 H         1 UNK         0.0810 
    118 H118       28.3157   -2.1861   -8.8358 H         1 UNK         0.0810 
    119 H119       29.1324   -0.8731   -7.9881 H         1 UNK         0.0810 
    120 H120       28.7872    1.9335   -9.2525 H         1 UNK         0.3040 
    121 H121       30.0804    3.7193   -9.1291 H         1 UNK         0.0766 
    122 H122       31.7863    4.2805  -10.8077 H         1 UNK         0.0812 
    123 H123       30.3586    3.6556  -11.6192 H         1 UNK         0.0812 
    124 H124       31.7903    2.6427  -11.4360 H         1 UNK         0.0812 
    125 H125       30.2672    2.0476   -7.2707 H         1 UNK         0.3205 
    126 H126       31.3191    1.1553   -5.5596 H         1 UNK         0.0754 
    127 H127       33.4617    2.0456   -4.7569 H         1 UNK         0.0769 
    128 H128       32.5153    3.3657   -5.4093 H         1 UNK         0.0769 
    129 H129       33.8478    2.7020   -6.3475 H         1 UNK         0.0769 
    130 H130       34.3893    0.4980   -5.7147 H         1 UNK         0.2981 
    131 H131       33.9640   -2.2348   -6.4143 H         1 UNK         0.0541 
    132 H132       35.3680   -2.7782   -9.6131 H         1 UNK         0.3459 
    133 H133       34.6988   -3.5040   -8.1760 H         1 UNK         0.3459 
    134 H134       36.6660   -0.9229   -5.8860 H         1 UNK         0.0612 
    135 H135       36.2735   -2.6148   -5.7424 H         1 UNK         0.0612 
    136 H136       34.7382   -3.6402   -3.9590 H         1 UNK         0.0624 
    137 H137       34.4818   -2.9494   -2.3752 H         1 UNK         0.0624 
@<TRIPOS>BOND
     1    1    2 1    
     2    1   72 1    
     3    1   73 1    
     4    1   74 1    
     5    2    3 2    
     6    2    4 am   BACKBONE|DICT|INTERRES
     7    4    5 1    
     8    4   75 1    
     9    5    6 1    
    10    5   35 1    
    11    5   76 1    
    12    6    7 1    
    13    6   77 1    
    14    6   78 1    
    15    7    8 1    
    16    8    9 1    
    17    8   79 1    
    18    8   80 1    
    19    9   10 ar   
    20    9   14 ar   
    21   10   11 ar   
    22   10   81 1    
    23   11   12 ar   
    24   11   71 1    
    25   12   13 ar   
    26   12   82 1    
    27   13   14 ar   
    28   13   15 1    
    29   14   83 1    
    30   15   16 1    
    31   15   84 1    
    32   15   85 1    
    33   16   17 1    
    34   17   18 1    
    35   17   86 1    
    36   17   87 1    
    37   18   19 1    
    38   18   37 1    
    39   18   88 1    
    40   19   20 am   BACKBONE|DICT|INTERRES
    41   19   89 1    
    42   20   21 2    
    43   20   22 1    
    44   22   23 1    
    45   22   24 1    
    46   22   90 1    
    47   23   91 1    
    48   23   92 1    
    49   23   93 1    
    50   24   25 am   BACKBONE|DICT|INTERRES
    51   24   94 1    
    52   25   26 2    
    53   25   27 1    
    54   27   28 1    
    55   27   29 1    
    56   27   95 1    
    57   28   96 1    
    58   28   97 1    
    59   28   98 1    
    60   29   30 am   BACKBONE|DICT|INTERRES
    61   29   99 1    
    62   30   31 2    
    63   30   32 1    
    64   32   33 1    
    65   32   34 1    
    66   32  100 1    
    67   33  101 1    
    68   33  102 1    
    69   33  103 1    
    70   34   35 am   BACKBONE|DICT|INTERRES
    71   34  104 1    
    72   35   36 2    
    73   37   38 2    
    74   37   39 am   BACKBONE|DICT|INTERRES
    75   39   40 1    
    76   39  105 1    
    77   40   41 1    
    78   40   42 1    
    79   40  106 1    
    80   41  107 1    
    81   41  108 1    
    82   41  109 1    
    83   42   43 2    
    84   42   44 am   BACKBONE|DICT|INTERRES
    85   44   45 1    
    86   44  110 1    
    87   45   46 1    
    88   45   47 1    
    89   45  111 1    
    90   46  112 1    
    91   46  113 1    
    92   46  114 1    
    93   47   48 2    
    94   47   49 am   BACKBONE|DICT|INTERRES
    95   49   50 1    
    96   49  115 1    
    97   50   51 1    
    98   50   52 1    
    99   50  116 1    
   100   51  117 1    
   101   51  118 1    
   102   51  119 1    
   103   52   53 2    
   104   52   54 am   BACKBONE|DICT|INTERRES
   105   54   55 1    
   106   54  120 1    
   107   55   56 1    
   108   55   57 1    
   109   55  121 1    
   110   56  122 1    
   111   56  123 1    
   112   56  124 1    
   113   57   58 2    
   114   57   59 am   BACKBONE|DICT|INTERRES
   115   59   60 1    
   116   59  125 1    
   117   60   61 1    
   118   60   62 1    
   119   60  126 1    
   120   61  127 1    
   121   61  128 1    
   122   61  129 1    
   123   62   63 2    
   124   62   64 am   BACKBONE|DICT|INTERRES
   125   64   65 1    
   126   64  130 1    
   127   65   66 1    
   128   65   69 1    
   129   65  131 1    
   130   66   67 am   BACKBONE|DICT|INTERRES
   131   66   68 2    
   132   67  132 1    
   133   67  133 1    
   134   69   70 1    
   135   69  134 1    
   136   69  135 1    
   137   70   71 1    
   138   71  136 1    
   139   71  137 1    
@<TRIPOS>SUBSTRUCTURE
     1 UNK         1 GROUP             0       ****    0 ROOT    
