@<TRIPOS>MOLECULE
3R137
137   139    1
SMALL
USER_CHARGES


@<TRIPOS>ATOM
      1 CA         25.4455   -6.0456    0.4984 C.3       0 UNK        -0.2020 
      2 C          25.5862   -4.5656    0.8221 C.2       0 UNK         0.4855 
      3 O          24.9328   -4.0750    1.7439 O.2       0 UNK        -0.5197 
      4 N          26.4410   -3.8545    0.0782 N.am      1 UNK        -0.4892 
      5 CA         26.6381   -2.4053    0.1786 C.3       1 UNK         0.0835 
      6 C6         28.0335   -1.9835   -0.3532 C.3       12 UNK        -0.0855 
      7 S7         28.3849   -2.5197   -2.0643 S.3       12 UNK        -0.2931 
      8 C8         30.1007   -3.1122   -1.9032 C.3       12 UNK         0.0378 
      9 C9         30.7110   -3.4100   -3.2653 C.ar      12 UNK        -0.0802 
     10 C10        31.7775   -2.6479   -3.7556 C.ar      12 UNK        -0.0944 
     11 C11        32.3190   -2.9102   -5.0190 C.ar      12 UNK        -0.0787 
     12 C12        31.7878   -3.9490   -5.7907 C.ar      12 UNK        -0.0862 
     13 C13        30.7213   -4.7137   -5.3110 C.ar      12 UNK        -0.0733 
     14 C14        30.1984   -4.4498   -4.0431 C.ar      12 UNK        -0.0832 
     15 C15        30.1214   -5.8240   -6.1556 C.3       12 UNK         0.0240 
     16 S16        28.4129   -5.4336   -6.6443 S.3       12 UNK        -0.2522 
     17 C17        28.6546   -4.1698   -7.9443 C.3       12 UNK        -0.0967 
     18 CA         27.9983   -2.7834   -7.6748 C.3       5 UNK         0.0660 
     19 N          26.8222   -2.8317   -6.7988 N.am      5 UNK        -0.4015 
     20 C          25.9559   -1.8274   -6.6080 C.2       4 UNK         0.4946 
     21 O          26.0549   -0.7378   -7.1812 O.2       4 UNK        -0.5353 
     22 CA         24.8141   -2.0667   -5.6040 C.3       4 UNK         0.0277 
     23 CB         25.1412   -3.1407   -4.5461 C.3       4 UNK        -0.1981 
     24 N          24.5009   -0.8148   -4.9178 N.am      4 UNK        -0.4209 
     25 C          23.4857    0.0053   -5.2067 C.2       3 UNK         0.4942 
     26 O          22.6213   -0.2450   -6.0494 O.2       3 UNK        -0.5208 
     27 CA         23.4239    1.3221   -4.4031 C.3       3 UNK         0.0250 
     28 CB         22.1754    2.1626   -4.7315 C.3       3 UNK        -0.1990 
     29 N          23.4824    1.1045   -2.9536 N.am      3 UNK        -0.4232 
     30 C          24.5896    0.8313   -2.2500 C.2       2 UNK         0.4993 
     31 O          25.7057    0.7326   -2.7666 O.2       2 UNK        -0.5286 
     32 CA         24.4372    0.6505   -0.7241 C.3       2 UNK         0.0209 
     33 CB         22.9966    0.3167   -0.2695 C.3       2 UNK        -0.1931 
     34 N          25.3925   -0.3252   -0.1799 N.am      2 UNK        -0.4546 
     35 C          25.4879   -1.6254   -0.5000 C.2       1 UNK         0.5154 
     36 O          24.7264   -2.1976   -1.2854 O.2       1 UNK        -0.5181 
     37 C          29.0071   -1.6706   -7.3147 C.2       5 UNK         0.5014 
     38 O          29.6598   -1.1642   -8.2275 O.2       5 UNK        -0.5248 
     39 N          29.0400   -1.2294   -6.0456 N.am      6 UNK        -0.4434 
     40 CA         29.7484   -0.0241   -5.5954 C.3       6 UNK         0.0363 
     41 CB         29.5253    0.1937   -4.0914 C.3       6 UNK        -0.1936 
     42 C          29.3432    1.2524   -6.3494 C.2       6 UNK         0.5081 
     43 O          30.2083    2.0796   -6.6369 O.2       6 UNK        -0.5248 
     44 N          28.0468    1.3870   -6.6560 N.am      7 UNK        -0.4718 
     45 CA         27.5027    2.4996   -7.4279 C.3       7 UNK         0.0273 
     46 CB         26.0563    2.7781   -6.9887 C.3       7 UNK        -0.1935 
     47 C          27.5740    2.2129   -8.9320 C.2       7 UNK         0.5018 
     48 O          27.9696    3.0994   -9.6882 O.2       7 UNK        -0.5186 
     49 N          27.2047    0.9884   -9.3411 N.am      8 UNK        -0.4240 
     50 CA         27.1207    0.5876  -10.7508 C.3       8 UNK         0.0235 
     51 CB         26.4129   -0.7703  -10.8806 C.3       8 UNK        -0.2000 
     52 C          28.4784    0.5682  -11.4747 C.2       8 UNK         0.4941 
     53 O          28.5514    1.0295  -12.6143 O.2       8 UNK        -0.5273 
     54 N          29.5259    0.0611  -10.8081 N.am      9 UNK        -0.4262 
     55 CA         30.9009    0.0566  -11.3210 C.3       9 UNK         0.0264 
     56 CB         31.5977   -1.2457  -10.8902 C.3       9 UNK        -0.1955 
     57 C          31.7066    1.2842  -10.8565 C.2       9 UNK         0.5031 
     58 O          32.8474    1.4441  -11.2924 O.2       9 UNK        -0.5390 
     59 N          31.1190    2.1122   -9.9777 N.am      10 UNK        -0.4204 
     60 CA         31.6833    3.3179   -9.3544 C.3       10 UNK         0.0237 
     61 CB         31.9487    4.4102  -10.4124 C.3       10 UNK        -0.1985 
     62 C          32.9095    3.0522   -8.4537 C.2       10 UNK         0.4970 
     63 O          33.6812    3.9770   -8.1923 O.2       10 UNK        -0.4914 
     64 N          33.0675    1.8072   -7.9877 N.am      11 UNK        -0.4285 
     65 CA         34.1370    1.3691   -7.0808 C.3       11 UNK         0.1007 
     66 C          33.8966    1.7092   -5.5811 C.2       11 UNK         0.5703 
     67 N          32.7176    2.1671   -5.1766 N.am      11 UNK        -0.7361 
     68 O          34.8089    1.5703   -4.7698 O.2       11 UNK        -0.4986 
     69 C69        34.4945   -0.1247   -7.3057 C.3       12 UNK        -0.0947 
     70 S70        33.0763   -1.2562   -7.1158 S.3       12 UNK        -0.2240 
     71 C71        33.4822   -2.0781   -5.5436 C.3       12 UNK         0.0194 
     72 H72        26.0919   -6.3461   -0.3260 H         1 UNK         0.0906 
     73 H73        25.7049   -6.6471    1.3692 H         1 UNK         0.0906 
     74 H74        24.4161   -6.2721    0.2216 H         1 UNK         0.0906 
     75 H75        26.9201   -4.2917   -0.6964 H         1 UNK         0.3140 
     76 H76        26.6034   -2.1422    1.2387 H         1 UNK         0.1085 
     77 H77        28.1632   -0.9011   -0.3000 H         1 UNK         0.0836 
     78 H78        28.7963   -2.3963    0.3089 H         1 UNK         0.0836 
     79 H79        30.6918   -2.3611   -1.3767 H         1 UNK         0.0731 
     80 H80        30.1194   -4.0136   -1.2888 H         1 UNK         0.0731 
     81 H81        32.1808   -1.8429   -3.1566 H         1 UNK         0.1312 
     82 H82        32.1998   -4.1501   -6.7702 H         1 UNK         0.1406 
     83 H83        29.3698   -5.0378   -3.6716 H         1 UNK         0.1631 
     84 H84        30.1194   -6.7488   -5.5769 H         1 UNK         0.0717 
     85 H85        30.7236   -6.0197   -7.0442 H         1 UNK         0.0717 
     86 H86        28.2181   -4.5890   -8.8524 H         1 UNK         0.0934 
     87 H87        29.7175   -4.0699   -8.1748 H         1 UNK         0.0934 
     88 H88        27.6008   -2.4639   -8.6368 H         1 UNK         0.0739 
     89 H89        26.6950   -3.6986   -6.2955 H         1 UNK         0.3093 
     90 H90        23.9499   -2.4068   -6.1778 H         1 UNK         0.0818 
     91 H91        24.3300   -3.2330   -3.8234 H         1 UNK         0.0819 
     92 H92        25.2716   -4.1266   -4.9934 H         1 UNK         0.0819 
     93 H93        26.0467   -2.9003   -3.9875 H         1 UNK         0.0819 
     94 H94        25.1624   -0.4998   -4.2138 H         1 UNK         0.3041 
     95 H95        24.2969    1.9080   -4.6955 H         1 UNK         0.0784 
     96 H96        22.1303    2.3964   -5.7962 H         1 UNK         0.0793 
     97 H97        21.2551    1.6374   -4.4728 H         1 UNK         0.0793 
     98 H98        22.1833    3.1120   -4.1957 H         1 UNK         0.0793 
     99 H99        22.6007    1.1309   -2.4623 H         1 UNK         0.3024 
    100 H100       24.7054    1.6138   -0.2868 H         1 UNK         0.1171 
    101 H101       22.9548    0.1490    0.8068 H         1 UNK         0.0786 
    102 H102       22.6112   -0.5801   -0.7566 H         1 UNK         0.0786 
    103 H103       22.3087    1.1351   -0.4848 H         1 UNK         0.0786 
    104 H104       26.0843    0.0603    0.4478 H         1 UNK         0.2977 
    105 H105       28.4930   -1.7177   -5.3522 H         1 UNK         0.3127 
    106 H106       30.8134   -0.1813   -5.7627 H         1 UNK         0.0770 
    107 H107       28.4651    0.2352   -3.8372 H         1 UNK         0.0814 
    108 H108       29.9770    1.1292   -3.7584 H         1 UNK         0.0814 
    109 H109       29.9822   -0.5973   -3.5039 H         1 UNK         0.0814 
    110 H110       27.4098    0.6258   -6.4481 H         1 UNK         0.2983 
    111 H111       28.0900    3.3998   -7.2312 H         1 UNK         0.0947 
    112 H112       25.6276    3.6030   -7.5595 H         1 UNK         0.0806 
    113 H113       26.0154    3.0587   -5.9365 H         1 UNK         0.0806 
    114 H114       25.4102    1.9114   -7.1329 H         1 UNK         0.0806 
    115 H115       26.8705    0.3273   -8.6452 H         1 UNK         0.3000 
    116 H116       26.4964    1.3316  -11.2507 H         1 UNK         0.0850 
    117 H117       26.1346   -0.9575  -11.9185 H         1 UNK         0.0810 
    118 H118       25.4986   -0.8088  -10.2878 H         1 UNK         0.0810 
    119 H119       27.0538   -1.5946  -10.5739 H         1 UNK         0.0810 
    120 H120       29.3980   -0.3228   -9.8724 H         1 UNK         0.3040 
    121 H121       30.8868    0.0765  -12.4128 H         1 UNK         0.0766 
    122 H122       32.5905   -1.3228  -11.3352 H         1 UNK         0.0812 
    123 H123       31.7252   -1.2993   -9.8095 H         1 UNK         0.0812 
    124 H124       31.0325   -2.1229  -11.2049 H         1 UNK         0.0812 
    125 H125       30.1715    1.8931   -9.7023 H         1 UNK         0.3205 
    126 H126       30.9060    3.6965   -8.6893 H         1 UNK         0.0754 
    127 H127       32.2156    5.3570   -9.9413 H         1 UNK         0.0769 
    128 H128       31.0636    4.5932  -11.0220 H         1 UNK         0.0769 
    129 H129       32.7667    4.1380  -11.0800 H         1 UNK         0.0769 
    130 H130       32.3694    1.1129   -8.2094 H         1 UNK         0.2981 
    131 H131       35.0319    1.9331   -7.3501 H         1 UNK         0.0541 
    132 H132       32.5897    2.3974   -4.2052 H         1 UNK         0.3459 
    133 H133       31.9416    2.2568   -5.8254 H         1 UNK         0.3459 
    134 H134       35.3103   -0.4340   -6.6499 H         1 UNK         0.0612 
    135 H135       34.8749   -0.2522   -8.3203 H         1 UNK         0.0612 
    136 H136       34.3506   -2.7219   -5.6880 H         1 UNK         0.0624 
    137 H137       33.7701   -1.3212   -4.8124 H         1 UNK         0.0624 
@<TRIPOS>BOND
     1    1    2 1    
     2    1   72 1    
     3    1   73 1    
     4    1   74 1    
     5    2    3 2    
     6    2    4 am   BACKBONE|DICT|INTERRES
     7    4    5 1    
     8    4   75 1    
     9    5    6 1    
    10    5   35 1    
    11    5   76 1    
    12    6    7 1    
    13    6   77 1    
    14    6   78 1    
    15    7    8 1    
    16    8    9 1    
    17    8   79 1    
    18    8   80 1    
    19    9   10 ar   
    20    9   14 ar   
    21   10   11 ar   
    22   10   81 1    
    23   11   12 ar   
    24   11   71 1    
    25   12   13 ar   
    26   12   82 1    
    27   13   14 ar   
    28   13   15 1    
    29   14   83 1    
    30   15   16 1    
    31   15   84 1    
    32   15   85 1    
    33   16   17 1    
    34   17   18 1    
    35   17   86 1    
    36   17   87 1    
    37   18   19 1    
    38   18   37 1    
    39   18   88 1    
    40   19   20 am   BACKBONE|DICT|INTERRES
    41   19   89 1    
    42   20   21 2    
    43   20   22 1    
    44   22   23 1    
    45   22   24 1    
    46   22   90 1    
    47   23   91 1    
    48   23   92 1    
    49   23   93 1    
    50   24   25 am   BACKBONE|DICT|INTERRES
    51   24   94 1    
    52   25   26 2    
    53   25   27 1    
    54   27   28 1    
    55   27   29 1    
    56   27   95 1    
    57   28   96 1    
    58   28   97 1    
    59   28   98 1    
    60   29   30 am   BACKBONE|DICT|INTERRES
    61   29   99 1    
    62   30   31 2    
    63   30   32 1    
    64   32   33 1    
    65   32   34 1    
    66   32  100 1    
    67   33  101 1    
    68   33  102 1    
    69   33  103 1    
    70   34   35 am   BACKBONE|DICT|INTERRES
    71   34  104 1    
    72   35   36 2    
    73   37   38 2    
    74   37   39 am   BACKBONE|DICT|INTERRES
    75   39   40 1    
    76   39  105 1    
    77   40   41 1    
    78   40   42 1    
    79   40  106 1    
    80   41  107 1    
    81   41  108 1    
    82   41  109 1    
    83   42   43 2    
    84   42   44 am   BACKBONE|DICT|INTERRES
    85   44   45 1    
    86   44  110 1    
    87   45   46 1    
    88   45   47 1    
    89   45  111 1    
    90   46  112 1    
    91   46  113 1    
    92   46  114 1    
    93   47   48 2    
    94   47   49 am   BACKBONE|DICT|INTERRES
    95   49   50 1    
    96   49  115 1    
    97   50   51 1    
    98   50   52 1    
    99   50  116 1    
   100   51  117 1    
   101   51  118 1    
   102   51  119 1    
   103   52   53 2    
   104   52   54 am   BACKBONE|DICT|INTERRES
   105   54   55 1    
   106   54  120 1    
   107   55   56 1    
   108   55   57 1    
   109   55  121 1    
   110   56  122 1    
   111   56  123 1    
   112   56  124 1    
   113   57   58 2    
   114   57   59 am   BACKBONE|DICT|INTERRES
   115   59   60 1    
   116   59  125 1    
   117   60   61 1    
   118   60   62 1    
   119   60  126 1    
   120   61  127 1    
   121   61  128 1    
   122   61  129 1    
   123   62   63 2    
   124   62   64 am   BACKBONE|DICT|INTERRES
   125   64   65 1    
   126   64  130 1    
   127   65   66 1    
   128   65   69 1    
   129   65  131 1    
   130   66   67 am   BACKBONE|DICT|INTERRES
   131   66   68 2    
   132   67  132 1    
   133   67  133 1    
   134   69   70 1    
   135   69  134 1    
   136   69  135 1    
   137   70   71 1    
   138   71  136 1    
   139   71  137 1    
@<TRIPOS>SUBSTRUCTURE
     1 UNK         1 GROUP             0       ****    0 ROOT    
