@<TRIPOS>MOLECULE
3R137
137   139    1
SMALL
USER_CHARGES


@<TRIPOS>ATOM
      1 CA         27.8081   -0.6431    4.4892 C.3       0 UNK        -0.2020 
      2 C          27.8713   -1.3031    3.1195 C.2       0 UNK         0.4855 
      3 O          27.7921   -2.5289    3.0312 O.2       0 UNK        -0.5197 
      4 N          28.0195   -0.4976    2.0581 N.am      1 UNK        -0.4892 
      5 CA         28.0519   -0.9112    0.6483 C.3       1 UNK         0.0835 
      6 C6         29.2473   -1.8585    0.3305 C.3       12 UNK        -0.0855 
      7 S7         29.7868   -1.7582   -1.4099 S.3       12 UNK        -0.2931 
      8 C8         29.9351   -3.5224   -1.8435 C.3       12 UNK         0.0378 
      9 C9         30.1602   -3.7107   -3.3374 C.ar      12 UNK        -0.0802 
     10 C10        31.2773   -3.1425   -3.9533 C.ar      12 UNK        -0.0944 
     11 C11        31.4860   -3.2845   -5.3272 C.ar      12 UNK        -0.0787 
     12 C12        30.5775   -4.0288   -6.0880 C.ar      12 UNK        -0.0862 
     13 C13        29.4669   -4.6268   -5.4794 C.ar      12 UNK        -0.0733 
     14 C14        29.2640   -4.4607   -4.1051 C.ar      12 UNK        -0.0832 
     15 C15        28.5114   -5.4975   -6.2883 C.3       12 UNK         0.0240 
     16 S16        27.6278   -4.5894   -7.5968 S.3       12 UNK        -0.2522 
     17 C17        26.5454   -3.4642   -6.6491 C.3       12 UNK        -0.0967 
     18 CA         26.4263   -2.0816   -7.3373 C.3       5 UNK         0.0660 
     19 N          25.1891   -1.3796   -6.9757 N.am      5 UNK        -0.4015 
     20 C          24.7765   -0.2048   -7.4725 C.2       4 UNK         0.4946 
     21 O          25.4464    0.4809   -8.2442 O.2       4 UNK        -0.5353 
     22 CA         23.3926    0.3155   -7.0426 C.3       4 UNK         0.0277 
     23 CB         22.2758   -0.3374   -7.8801 C.3       4 UNK        -0.1981 
     24 N          23.1141    0.2265   -5.6017 N.am      4 UNK        -0.4209 
     25 C          22.9909   -0.8676   -4.8393 C.2       3 UNK         0.4942 
     26 O          23.0787   -2.0239   -5.2619 O.2       3 UNK        -0.5208 
     27 CA         22.7372   -0.6243   -3.3437 C.3       3 UNK         0.0250 
     28 CB         21.2423   -0.7756   -3.0194 C.3       3 UNK        -0.1990 
     29 N          23.5098   -1.5487   -2.5129 N.am      3 UNK        -0.4232 
     30 C          24.8473   -1.5800   -2.4526 C.2       2 UNK         0.4993 
     31 O          25.5885   -0.8069   -3.0682 O.2       2 UNK        -0.5286 
     32 CA         25.4598   -2.6926   -1.5903 C.3       2 UNK         0.0209 
     33 CB         25.8233   -3.9008   -2.4670 C.3       2 UNK        -0.1931 
     34 N          26.6636   -2.2135   -0.9149 N.am      2 UNK        -0.4546 
     35 C          26.6719   -1.4278    0.1679 C.2       1 UNK         0.5154 
     36 O          25.6430   -1.0856    0.7590 O.2       1 UNK        -0.5181 
     37 C          27.6946   -1.2301   -7.1348 C.2       5 UNK         0.5014 
     38 O          28.5492   -1.2099   -8.0208 O.2       5 UNK        -0.5248 
     39 N          27.7641   -0.4970   -6.0132 N.am      6 UNK        -0.4434 
     40 CA         28.8774    0.3979   -5.6842 C.3       6 UNK         0.0363 
     41 CB         28.6764    0.9641   -4.2707 C.3       6 UNK        -0.1936 
     42 C          29.0864    1.5353   -6.7036 C.2       6 UNK         0.5081 
     43 O          30.2269    1.9358   -6.9467 O.2       6 UNK        -0.5248 
     44 N          27.9840    2.0205   -7.2913 N.am      7 UNK        -0.4718 
     45 CA         27.9884    3.0232   -8.3537 C.3       7 UNK         0.0273 
     46 CB         26.6715    3.8159   -8.3239 C.3       7 UNK        -0.1935 
     47 C          28.2084    2.3773   -9.7285 C.2       7 UNK         0.5018 
     48 O          29.0169    2.8851  -10.5040 O.2       7 UNK        -0.5186 
     49 N          27.5089    1.2656  -10.0018 N.am      8 UNK        -0.4240 
     50 CA         27.5585    0.5280  -11.2689 C.3       8 UNK         0.0235 
     51 CB         26.4922   -0.5783  -11.2675 C.3       8 UNK        -0.2000 
     52 C          28.9443   -0.0560  -11.5888 C.2       8 UNK         0.4941 
     53 O          29.3775    0.0192  -12.7391 O.2       8 UNK        -0.5273 
     54 N          29.6279   -0.5943  -10.5695 N.am      9 UNK        -0.4262 
     55 CA         31.0090   -1.0757  -10.6649 C.3       9 UNK         0.0264 
     56 CB         31.2628   -2.0920   -9.5390 C.3       9 UNK        -0.1955 
     57 C          32.0506    0.0589  -10.6121 C.2       9 UNK         0.5031 
     58 O          33.2262   -0.2046  -10.8681 O.2       9 UNK        -0.5390 
     59 N          31.6169    1.2809  -10.2607 N.am      10 UNK        -0.4204 
     60 CA         32.4066    2.5071  -10.0811 C.3       10 UNK         0.0237 
     61 CB         33.0000    2.9772  -11.4261 C.3       10 UNK        -0.1985 
     62 C          33.4658    2.4186   -8.9629 C.2       10 UNK         0.4970 
     63 O          34.4175    3.2018   -8.9636 O.2       10 UNK        -0.4914 
     64 N          33.2845    1.4780   -8.0296 N.am      11 UNK        -0.4285 
     65 CA         34.1572    1.2576   -6.8712 C.3       11 UNK         0.1007 
     66 C          33.8864    2.2311   -5.6881 C.2       11 UNK         0.5703 
     67 N          32.7135    2.8485   -5.5923 N.am      11 UNK        -0.7361 
     68 O          34.7649    2.4426   -4.8552 O.2       11 UNK        -0.4986 
     69 C69        34.1404   -0.2306   -6.4326 C.3       12 UNK        -0.0947 
     70 S70        32.4745   -0.8161   -5.9875 S.3       12 UNK        -0.2240 
     71 C71        32.6930   -2.6179   -5.9689 C.3       12 UNK         0.0194 
     72 H72        27.9056    0.4406    4.4264 H         1 UNK         0.0906 
     73 H73        26.8574   -0.8703    4.9708 H         1 UNK         0.0906 
     74 H74        28.6101   -1.0188    5.1241 H         1 UNK         0.0906 
     75 H75        28.0448    0.5021    2.2071 H         1 UNK         0.3140 
     76 H76        28.2113    0.0162    0.0951 H         1 UNK         0.1085 
     77 H77        30.1104   -1.5799    0.9373 H         1 UNK         0.0836 
     78 H78        29.0162   -2.8884    0.6093 H         1 UNK         0.0836 
     79 H79        29.0384   -4.0544   -1.5222 H         1 UNK         0.0731 
     80 H80        30.7706   -3.9596   -1.2948 H         1 UNK         0.0731 
     81 H81        31.9753   -2.5627   -3.3644 H         1 UNK         0.1312 
     82 H82        30.7332   -4.1480   -7.1515 H         1 UNK         0.1406 
     83 H83        28.4154   -4.9319   -3.6298 H         1 UNK         0.1631 
     84 H84        27.7782   -5.9816   -5.6412 H         1 UNK         0.0717 
     85 H85        29.0830   -6.3025   -6.7522 H         1 UNK         0.0717 
     86 H86        25.5662   -3.9418   -6.5855 H         1 UNK         0.0934 
     87 H87        26.8976   -3.3638   -5.6215 H         1 UNK         0.0934 
     88 H88        26.3385   -2.2573   -8.4106 H         1 UNK         0.0739 
     89 H89        24.5518   -1.8533   -6.3385 H         1 UNK         0.3093 
     90 H90        23.3842    1.3822   -7.2732 H         1 UNK         0.0818 
     91 H91        21.3017    0.0907   -7.6434 H         1 UNK         0.0819 
     92 H92        22.4479   -0.1798   -8.9458 H         1 UNK         0.0819 
     93 H93        22.2162   -1.4141   -7.7193 H         1 UNK         0.0819 
     94 H94        23.0458    1.1213   -5.1355 H         1 UNK         0.3041 
     95 H95        23.0488    0.3911   -3.0890 H         1 UNK         0.0784 
     96 H96        20.6425   -0.0785   -3.6063 H         1 UNK         0.0793 
     97 H97        20.8811   -1.7811   -3.2406 H         1 UNK         0.0793 
     98 H98        21.0399   -0.5689   -1.9682 H         1 UNK         0.0793 
     99 H99        22.9812   -2.2478   -2.0118 H         1 UNK         0.3024 
    100 H100       24.7358   -3.0074   -0.8348 H         1 UNK         0.1171 
    101 H101       24.9366   -4.3152   -2.9488 H         1 UNK         0.0786 
    102 H102       26.5194   -3.6200   -3.2566 H         1 UNK         0.0786 
    103 H103       26.2777   -4.6991   -1.8800 H         1 UNK         0.0786 
    104 H104       27.5446   -2.3636   -1.3887 H         1 UNK         0.2977 
    105 H105       27.0151   -0.5633   -5.3368 H         1 UNK         0.3127 
    106 H106       29.7796   -0.2114   -5.6790 H         1 UNK         0.0770 
    107 H107       27.7709    1.5678   -4.2012 H         1 UNK         0.0814 
    108 H108       29.5174    1.5963   -3.9826 H         1 UNK         0.0814 
    109 H109       28.6043    0.1659   -3.5316 H         1 UNK         0.0814 
    110 H110       27.0955    1.5847   -7.0830 H         1 UNK         0.2983 
    111 H111       28.8073    3.7253   -8.1790 H         1 UNK         0.0947 
    112 H112       26.6618    4.5823   -9.1001 H         1 UNK         0.0806 
    113 H113       26.5367    4.3223   -7.3681 H         1 UNK         0.0806 
    114 H114       25.8043    3.1754   -8.4884 H         1 UNK         0.0806 
    115 H115       26.8405    0.9320   -9.3084 H         1 UNK         0.3000 
    116 H116       27.3106    1.2355  -12.0630 H         1 UNK         0.0850 
    117 H117       26.4645   -1.0944  -12.2280 H         1 UNK         0.0810 
    118 H118       25.4966   -0.1721  -11.0875 H         1 UNK         0.0810 
    119 H119       26.6929   -1.3267  -10.5016 H         1 UNK         0.0810 
    120 H120       29.1824   -0.6736   -9.6545 H         1 UNK         0.3040 
    121 H121       31.1365   -1.5903  -11.6196 H         1 UNK         0.0766 
    122 H122       31.1555   -1.6342   -8.5556 H         1 UNK         0.0812 
    123 H123       32.2706   -2.5049   -9.5994 H         1 UNK         0.0812 
    124 H124       30.5644   -2.9273   -9.5931 H         1 UNK         0.0812 
    125 H125       30.6221    1.3962  -10.1111 H         1 UNK         0.3205 
    126 H126       31.6981    3.2686   -9.7521 H         1 UNK         0.0754 
    127 H127       33.4568    3.9631  -11.3316 H         1 UNK         0.0769 
    128 H128       32.2286    3.0527  -12.1928 H         1 UNK         0.0769 
    129 H129       33.7697    2.2957  -11.7895 H         1 UNK         0.0769 
    130 H130       32.4480    0.9138   -8.0608 H         1 UNK         0.2981 
    131 H131       35.1798    1.4674   -7.1911 H         1 UNK         0.0541 
    132 H132       31.9553    2.6153   -6.2257 H         1 UNK         0.3459 
    133 H133       32.5527    3.4843   -4.8284 H         1 UNK         0.3459 
    134 H134       34.8109   -0.3946   -5.5872 H         1 UNK         0.0612 
    135 H135       34.5186   -0.8539   -7.2445 H         1 UNK         0.0612 
    136 H136       33.5913   -2.8713   -5.4041 H         1 UNK         0.0624 
    137 H137       32.8468   -2.9767   -6.9875 H         1 UNK         0.0624 
@<TRIPOS>BOND
     1    1    2 1    
     2    1   72 1    
     3    1   73 1    
     4    1   74 1    
     5    2    3 2    
     6    2    4 am   BACKBONE|DICT|INTERRES
     7    4    5 1    
     8    4   75 1    
     9    5    6 1    
    10    5   35 1    
    11    5   76 1    
    12    6    7 1    
    13    6   77 1    
    14    6   78 1    
    15    7    8 1    
    16    8    9 1    
    17    8   79 1    
    18    8   80 1    
    19    9   10 ar   
    20    9   14 ar   
    21   10   11 ar   
    22   10   81 1    
    23   11   12 ar   
    24   11   71 1    
    25   12   13 ar   
    26   12   82 1    
    27   13   14 ar   
    28   13   15 1    
    29   14   83 1    
    30   15   16 1    
    31   15   84 1    
    32   15   85 1    
    33   16   17 1    
    34   17   18 1    
    35   17   86 1    
    36   17   87 1    
    37   18   19 1    
    38   18   37 1    
    39   18   88 1    
    40   19   20 am   BACKBONE|DICT|INTERRES
    41   19   89 1    
    42   20   21 2    
    43   20   22 1    
    44   22   23 1    
    45   22   24 1    
    46   22   90 1    
    47   23   91 1    
    48   23   92 1    
    49   23   93 1    
    50   24   25 am   BACKBONE|DICT|INTERRES
    51   24   94 1    
    52   25   26 2    
    53   25   27 1    
    54   27   28 1    
    55   27   29 1    
    56   27   95 1    
    57   28   96 1    
    58   28   97 1    
    59   28   98 1    
    60   29   30 am   BACKBONE|DICT|INTERRES
    61   29   99 1    
    62   30   31 2    
    63   30   32 1    
    64   32   33 1    
    65   32   34 1    
    66   32  100 1    
    67   33  101 1    
    68   33  102 1    
    69   33  103 1    
    70   34   35 am   BACKBONE|DICT|INTERRES
    71   34  104 1    
    72   35   36 2    
    73   37   38 2    
    74   37   39 am   BACKBONE|DICT|INTERRES
    75   39   40 1    
    76   39  105 1    
    77   40   41 1    
    78   40   42 1    
    79   40  106 1    
    80   41  107 1    
    81   41  108 1    
    82   41  109 1    
    83   42   43 2    
    84   42   44 am   BACKBONE|DICT|INTERRES
    85   44   45 1    
    86   44  110 1    
    87   45   46 1    
    88   45   47 1    
    89   45  111 1    
    90   46  112 1    
    91   46  113 1    
    92   46  114 1    
    93   47   48 2    
    94   47   49 am   BACKBONE|DICT|INTERRES
    95   49   50 1    
    96   49  115 1    
    97   50   51 1    
    98   50   52 1    
    99   50  116 1    
   100   51  117 1    
   101   51  118 1    
   102   51  119 1    
   103   52   53 2    
   104   52   54 am   BACKBONE|DICT|INTERRES
   105   54   55 1    
   106   54  120 1    
   107   55   56 1    
   108   55   57 1    
   109   55  121 1    
   110   56  122 1    
   111   56  123 1    
   112   56  124 1    
   113   57   58 2    
   114   57   59 am   BACKBONE|DICT|INTERRES
   115   59   60 1    
   116   59  125 1    
   117   60   61 1    
   118   60   62 1    
   119   60  126 1    
   120   61  127 1    
   121   61  128 1    
   122   61  129 1    
   123   62   63 2    
   124   62   64 am   BACKBONE|DICT|INTERRES
   125   64   65 1    
   126   64  130 1    
   127   65   66 1    
   128   65   69 1    
   129   65  131 1    
   130   66   67 am   BACKBONE|DICT|INTERRES
   131   66   68 2    
   132   67  132 1    
   133   67  133 1    
   134   69   70 1    
   135   69  134 1    
   136   69  135 1    
   137   70   71 1    
   138   71  136 1    
   139   71  137 1    
@<TRIPOS>SUBSTRUCTURE
     1 UNK         1 GROUP             0       ****    0 ROOT    
