@<TRIPOS>MOLECULE
3R137
137   139    1
SMALL
USER_CHARGES


@<TRIPOS>ATOM
      1 CA         25.9046   -5.1345   -3.4915 C.3       0 UNK        -0.2020 
      2 C          26.0642   -4.4154   -2.1621 C.2       0 UNK         0.4855 
      3 O          25.0900   -4.2793   -1.4221 O.2       0 UNK        -0.5197 
      4 N          27.2830   -3.9617   -1.8466 N.am      1 UNK        -0.4892 
      5 CA         27.5898   -3.2180   -0.6213 C.3       1 UNK         0.0835 
      6 C6         29.0842   -3.3043   -0.2228 C.3       12 UNK        -0.0855 
      7 S7         29.6851   -5.0320   -0.1797 S.3       12 UNK        -0.2931 
      8 C8         31.1806   -4.9816   -1.2235 C.3       12 UNK         0.0378 
      9 C9         30.9429   -4.3732   -2.6015 C.ar      12 UNK        -0.0802 
     10 C10        31.4915   -3.1269   -2.9100 C.ar      12 UNK        -0.0944 
     11 C11        31.3222   -2.5590   -4.1742 C.ar      12 UNK        -0.0787 
     12 C12        30.5732   -3.2525   -5.1362 C.ar      12 UNK        -0.0862 
     13 C13        30.0227   -4.5112   -4.8495 C.ar      12 UNK        -0.0733 
     14 C14        30.2151   -5.0614   -3.5763 C.ar      12 UNK        -0.0832 
     15 C15        29.2809   -5.3466   -5.8979 C.3       12 UNK         0.0240 
     16 S16        28.5517   -4.4313   -7.3008 S.3       12 UNK        -0.2522 
     17 C17        27.2154   -3.4750   -6.5055 C.3       12 UNK        -0.0967 
     18 CA         26.8780   -2.1853   -7.2965 C.3       5 UNK         0.0660 
     19 N          25.5505   -1.6571   -6.9553 N.am      5 UNK        -0.4015 
     20 C          24.9840   -0.5823   -7.5260 C.2       4 UNK         0.4946 
     21 O          25.4872    0.0300   -8.4674 O.2       4 UNK        -0.5353 
     22 CA         23.6635   -0.0537   -6.9368 C.3       4 UNK         0.0277 
     23 CB         22.4781   -0.5302   -7.7914 C.3       4 UNK        -0.1981 
     24 N          23.3998   -0.3692   -5.5260 N.am      4 UNK        -0.4209 
     25 C          24.2177   -0.1547   -4.4850 C.2       3 UNK         0.4942 
     26 O          25.3839    0.2352   -4.5926 O.2       3 UNK        -0.5208 
     27 CA         23.6314   -0.4466   -3.0964 C.3       3 UNK         0.0250 
     28 CB         23.0663   -1.8785   -2.9975 C.3       3 UNK        -0.1990 
     29 N          24.6709   -0.2555   -2.0898 N.am      3 UNK        -0.4232 
     30 C          24.4828    0.0319   -0.7984 C.2       2 UNK         0.4993 
     31 O          23.3721    0.1959   -0.2893 O.2       2 UNK        -0.5286 
     32 CA         25.7540    0.1014    0.0729 C.3       2 UNK         0.0209 
     33 CB         25.4719    0.6145    1.4980 C.3       2 UNK        -0.1931 
     34 N          26.3938   -1.2154    0.1595 N.am      2 UNK        -0.4546 
     35 C          27.1455   -1.7565   -0.8075 C.2       1 UNK         0.5154 
     36 O          27.4685   -1.1507   -1.8331 O.2       1 UNK        -0.5181 
     37 C          27.9909   -1.1247   -7.1478 C.2       5 UNK         0.5014 
     38 O          28.8643   -1.0417   -8.0119 O.2       5 UNK        -0.5248 
     39 N          27.9086   -0.2980   -6.0941 N.am      6 UNK        -0.4434 
     40 CA         28.8533    0.7873   -5.8303 C.3       6 UNK         0.0363 
     41 CB         28.6058    1.3463   -4.4210 C.3       6 UNK        -0.1936 
     42 C          28.8045    1.9059   -6.8831 C.2       6 UNK         0.5081 
     43 O          29.8346    2.5278   -7.1415 O.2       6 UNK        -0.5248 
     44 N          27.6296    2.1273   -7.4866 N.am      7 UNK        -0.4718 
     45 CA         27.4469    3.0527   -8.6028 C.3       7 UNK         0.0273 
     46 CB         25.9834    3.5215   -8.6562 C.3       7 UNK        -0.1935 
     47 C          27.8711    2.4100   -9.9316 C.2       7 UNK         0.5018 
     48 O          28.5977    3.0409  -10.6984 O.2       7 UNK        -0.5186 
     49 N          27.4251    1.1679  -10.1718 N.am      8 UNK        -0.4240 
     50 CA         27.6649    0.4048  -11.3997 C.3       8 UNK         0.0235 
     51 CB         26.8313   -0.8865  -11.3773 C.3       8 UNK        -0.2000 
     52 C          29.1473    0.0888  -11.6503 C.2       8 UNK         0.4941 
     53 O          29.6246    0.2952  -12.7668 O.2       8 UNK        -0.5273 
     54 N          29.8517   -0.3866  -10.6140 N.am      9 UNK        -0.4262 
     55 CA         31.2890   -0.6728  -10.6636 C.3       9 UNK         0.0264 
     56 CB         31.5987   -1.8483   -9.7222 C.3       9 UNK        -0.1955 
     57 C          32.1557    0.5559  -10.3268 C.2       9 UNK         0.5031 
     58 O          33.3780    0.4723  -10.4516 O.2       9 UNK        -0.5390 
     59 N          31.5219    1.6604   -9.9011 N.am      10 UNK        -0.4204 
     60 CA         32.1053    2.9551   -9.5195 C.3       10 UNK         0.0237 
     61 CB         32.7999    3.6228  -10.7255 C.3       10 UNK        -0.1985 
     62 C          33.0093    2.9133   -8.2685 C.2       10 UNK         0.4970 
     63 O          33.7405    3.8740   -8.0209 O.2       10 UNK        -0.4914 
     64 N          32.9389    1.8239   -7.4950 N.am      11 UNK        -0.4285 
     65 CA         33.6626    1.6238   -6.2325 C.3       11 UNK         0.1007 
     66 C          33.0240    2.3173   -4.9951 C.2       11 UNK         0.5703 
     67 N          31.8377    2.9039   -5.0910 N.am      11 UNK        -0.7361 
     68 O          33.6317    2.3433   -3.9276 O.2       11 UNK        -0.4986 
     69 C69        33.9782    0.1246   -5.9823 C.3       12 UNK        -0.0947 
     70 S70        32.5539   -1.0033   -6.1710 S.3       12 UNK        -0.2240 
     71 C71        31.9709   -1.2027   -4.4548 C.3       12 UNK         0.0194 
     72 H72        25.2272   -4.5816   -4.1410 H         1 UNK         0.0906 
     73 H73        26.8572   -5.2473   -4.0033 H         1 UNK         0.0906 
     74 H74        25.4880   -6.1287   -3.3320 H         1 UNK         0.0906 
     75 H75        28.0566   -4.0727   -2.4863 H         1 UNK         0.3140 
     76 H76        27.0100   -3.6574    0.1940 H         1 UNK         0.1085 
     77 H77        29.6973   -2.7061   -0.8967 H         1 UNK         0.0836 
     78 H78        29.2318   -2.8723    0.7687 H         1 UNK         0.0836 
     79 H79        31.5596   -5.9977   -1.3420 H         1 UNK         0.0731 
     80 H80        31.9578   -4.4323   -0.6896 H         1 UNK         0.0731 
     81 H81        32.0649   -2.5979   -2.1607 H         1 UNK         0.1312 
     82 H82        30.4441   -2.8204   -6.1183 H         1 UNK         0.1406 
     83 H83        29.8134   -6.0390   -3.3435 H         1 UNK         0.1631 
     84 H84        28.4962   -5.9389   -5.4276 H         1 UNK         0.0717 
     85 H85        29.9910   -6.0656   -6.3082 H         1 UNK         0.0717 
     86 H86        26.3421   -4.1274   -6.4611 H         1 UNK         0.0934 
     87 H87        27.4793   -3.2437   -5.4715 H         1 UNK         0.0934 
     88 H88        26.8270   -2.4460   -8.3554 H         1 UNK         0.0739 
     89 H89        25.0682   -2.0936   -6.1848 H         1 UNK         0.3093 
     90 H90        23.7117    1.0349   -7.0065 H         1 UNK         0.0818 
     91 H91        21.5477   -0.0516   -7.4854 H         1 UNK         0.0819 
     92 H92        22.6311   -0.2866   -8.8441 H         1 UNK         0.0819 
     93 H93        22.3402   -1.6101   -7.7242 H         1 UNK         0.0819 
     94 H94        22.4689   -0.7054   -5.3246 H         1 UNK         0.3041 
     95 H95        22.8310    0.2746   -2.9185 H         1 UNK         0.0784 
     96 H96        22.2042   -2.0179   -3.6500 H         1 UNK         0.0793 
     97 H97        23.8125   -2.6226   -3.2750 H         1 UNK         0.0793 
     98 H98        22.7345   -2.1080   -1.9846 H         1 UNK         0.0793 
     99 H99        25.6222   -0.3517   -2.4360 H         1 UNK         0.3024 
    100 H100       26.4398    0.8056   -0.4051 H         1 UNK         0.1171 
    101 H101       26.3921    0.7070    2.0752 H         1 UNK         0.0786 
    102 H102       25.0072    1.6011    1.4721 H         1 UNK         0.0786 
    103 H103       24.7992   -0.0490    2.0430 H         1 UNK         0.0786 
    104 H104       26.1401   -1.7827    0.9559 H         1 UNK         0.2977 
    105 H105       27.1105   -0.3625   -5.4686 H         1 UNK         0.3127 
    106 H106       29.8581    0.3659   -5.8642 H         1 UNK         0.0770 
    107 H107       27.6059    1.7708   -4.3253 H         1 UNK         0.0814 
    108 H108       29.3170    2.1355   -4.1789 H         1 UNK         0.0814 
    109 H109       28.7140    0.5700   -3.6633 H         1 UNK         0.0814 
    110 H110       26.8449    1.5371   -7.2465 H         1 UNK         0.2983 
    111 H111       28.0748    3.9323   -8.4411 H         1 UNK         0.0947 
    112 H112       25.8335    4.2326   -9.4697 H         1 UNK         0.0806 
    113 H113       25.6950    4.0223   -7.7320 H         1 UNK         0.0806 
    114 H114       25.2923    2.6937   -8.8175 H         1 UNK         0.0806 
    115 H115       26.8031    0.7373   -9.4884 H         1 UNK         0.3000 
    116 H116       27.3152    1.0170  -12.2337 H         1 UNK         0.0850 
    117 H117       26.9621   -1.4527  -12.3004 H         1 UNK         0.0810 
    118 H118       25.7674   -0.6703  -11.2769 H         1 UNK         0.0810 
    119 H119       27.1189   -1.5369  -10.5512 H         1 UNK         0.0810 
    120 H120       29.3865   -0.5565   -9.7220 H         1 UNK         0.3040 
    121 H121       31.5607   -0.9830  -11.6749 H         1 UNK         0.0766 
    122 H122       31.3240   -1.6221   -8.6935 H         1 UNK         0.0812 
    123 H123       32.6614   -2.0936   -9.7304 H         1 UNK         0.0812 
    124 H124       31.0557   -2.7458  -10.0183 H         1 UNK         0.0812 
    125 H125       30.5135    1.6168   -9.8427 H         1 UNK         0.3205 
    126 H126       31.2582    3.5858   -9.2459 H         1 UNK         0.0754 
    127 H127       33.0920    4.6476  -10.4931 H         1 UNK         0.0769 
    128 H128       32.1363    3.6661  -11.5893 H         1 UNK         0.0769 
    129 H129       33.7028    3.0877  -11.0211 H         1 UNK         0.0769 
    130 H130       32.2933    1.0916   -7.7489 H         1 UNK         0.2981 
    131 H131       34.6310    2.1155   -6.3427 H         1 UNK         0.0541 
    132 H132       31.3002    2.8621   -5.9515 H         1 UNK         0.3459 
    133 H133       31.4583    3.3696   -4.2834 H         1 UNK         0.3459 
    134 H134       34.4552   -0.0266   -5.0126 H         1 UNK         0.0612 
    135 H135       34.7214   -0.1974   -6.7131 H         1 UNK         0.0612 
    136 H136       32.8196   -1.0655   -3.7835 H         1 UNK         0.0624 
    137 H137       31.2637   -0.4090   -4.2153 H         1 UNK         0.0624 
@<TRIPOS>BOND
     1    1    2 1    
     2    1   72 1    
     3    1   73 1    
     4    1   74 1    
     5    2    3 2    
     6    2    4 am   BACKBONE|DICT|INTERRES
     7    4    5 1    
     8    4   75 1    
     9    5    6 1    
    10    5   35 1    
    11    5   76 1    
    12    6    7 1    
    13    6   77 1    
    14    6   78 1    
    15    7    8 1    
    16    8    9 1    
    17    8   79 1    
    18    8   80 1    
    19    9   10 ar   
    20    9   14 ar   
    21   10   11 ar   
    22   10   81 1    
    23   11   12 ar   
    24   11   71 1    
    25   12   13 ar   
    26   12   82 1    
    27   13   14 ar   
    28   13   15 1    
    29   14   83 1    
    30   15   16 1    
    31   15   84 1    
    32   15   85 1    
    33   16   17 1    
    34   17   18 1    
    35   17   86 1    
    36   17   87 1    
    37   18   19 1    
    38   18   37 1    
    39   18   88 1    
    40   19   20 am   BACKBONE|DICT|INTERRES
    41   19   89 1    
    42   20   21 2    
    43   20   22 1    
    44   22   23 1    
    45   22   24 1    
    46   22   90 1    
    47   23   91 1    
    48   23   92 1    
    49   23   93 1    
    50   24   25 am   BACKBONE|DICT|INTERRES
    51   24   94 1    
    52   25   26 2    
    53   25   27 1    
    54   27   28 1    
    55   27   29 1    
    56   27   95 1    
    57   28   96 1    
    58   28   97 1    
    59   28   98 1    
    60   29   30 am   BACKBONE|DICT|INTERRES
    61   29   99 1    
    62   30   31 2    
    63   30   32 1    
    64   32   33 1    
    65   32   34 1    
    66   32  100 1    
    67   33  101 1    
    68   33  102 1    
    69   33  103 1    
    70   34   35 am   BACKBONE|DICT|INTERRES
    71   34  104 1    
    72   35   36 2    
    73   37   38 2    
    74   37   39 am   BACKBONE|DICT|INTERRES
    75   39   40 1    
    76   39  105 1    
    77   40   41 1    
    78   40   42 1    
    79   40  106 1    
    80   41  107 1    
    81   41  108 1    
    82   41  109 1    
    83   42   43 2    
    84   42   44 am   BACKBONE|DICT|INTERRES
    85   44   45 1    
    86   44  110 1    
    87   45   46 1    
    88   45   47 1    
    89   45  111 1    
    90   46  112 1    
    91   46  113 1    
    92   46  114 1    
    93   47   48 2    
    94   47   49 am   BACKBONE|DICT|INTERRES
    95   49   50 1    
    96   49  115 1    
    97   50   51 1    
    98   50   52 1    
    99   50  116 1    
   100   51  117 1    
   101   51  118 1    
   102   51  119 1    
   103   52   53 2    
   104   52   54 am   BACKBONE|DICT|INTERRES
   105   54   55 1    
   106   54  120 1    
   107   55   56 1    
   108   55   57 1    
   109   55  121 1    
   110   56  122 1    
   111   56  123 1    
   112   56  124 1    
   113   57   58 2    
   114   57   59 am   BACKBONE|DICT|INTERRES
   115   59   60 1    
   116   59  125 1    
   117   60   61 1    
   118   60   62 1    
   119   60  126 1    
   120   61  127 1    
   121   61  128 1    
   122   61  129 1    
   123   62   63 2    
   124   62   64 am   BACKBONE|DICT|INTERRES
   125   64   65 1    
   126   64  130 1    
   127   65   66 1    
   128   65   69 1    
   129   65  131 1    
   130   66   67 am   BACKBONE|DICT|INTERRES
   131   66   68 2    
   132   67  132 1    
   133   67  133 1    
   134   69   70 1    
   135   69  134 1    
   136   69  135 1    
   137   70   71 1    
   138   71  136 1    
   139   71  137 1    
@<TRIPOS>SUBSTRUCTURE
     1 UNK         1 GROUP             0       ****    0 ROOT    
