@<TRIPOS>MOLECULE
3R137
137   139    1
SMALL
USER_CHARGES


@<TRIPOS>ATOM
      1 CA         26.9224   -8.6762   -0.8321 C.3       0 UNK        -0.2020 
      2 C          26.5386   -7.2408   -0.5065 C.2       0 UNK         0.4855 
      3 O          25.6945   -7.0131    0.3597 O.2       0 UNK        -0.5197 
      4 N          27.1424   -6.2688   -1.2024 N.am      1 UNK        -0.4892 
      5 CA         26.9164   -4.8269   -1.0232 C.3       1 UNK         0.0835 
      6 C6         28.2084   -4.0143   -1.2900 C.3       12 UNK        -0.0855 
      7 S7         28.9002   -4.2386   -2.9668 S.3       12 UNK        -0.2931 
      8 C8         28.7164   -2.5681   -3.6599 C.3       12 UNK         0.0378 
      9 C9         29.8299   -1.6278   -3.2205 C.ar      12 UNK        -0.0802 
     10 C10        31.0088   -1.5460   -3.9664 C.ar      12 UNK        -0.0944 
     11 C11        32.0068   -0.6317   -3.6195 C.ar      12 UNK        -0.0787 
     12 C12        31.8279    0.1975   -2.5089 C.ar      12 UNK        -0.0862 
     13 C13        30.6579    0.1214   -1.7480 C.ar      12 UNK        -0.0733 
     14 C14        29.6666   -0.8003   -2.1054 C.ar      12 UNK        -0.0832 
     15 C15        30.4744    1.0366   -0.5426 C.3       12 UNK         0.0240 
     16 S16        28.8647    1.8916   -0.5344 S.3       12 UNK        -0.2522 
     17 C17        29.0094    3.0355   -1.9539 C.3       12 UNK        -0.0967 
     18 CA         28.5287    2.4421   -3.3111 C.3       5 UNK         0.0660 
     19 N          27.2493    1.7340   -3.1804 N.am      5 UNK        -0.4015 
     20 C          26.8301    0.7446   -3.9774 C.2       4 UNK         0.4946 
     21 O          27.4722    0.3522   -4.9527 O.2       4 UNK        -0.5353 
     22 CA         25.4836    0.1003   -3.5984 C.3       4 UNK         0.0277 
     23 CB         24.3070    1.0729   -3.8273 C.3       4 UNK        -0.1981 
     24 N          25.2495   -1.1926   -4.2575 N.am      4 UNK        -0.4209 
     25 C          25.0189   -1.4397   -5.5593 C.2       3 UNK         0.4942 
     26 O          24.8859   -0.5687   -6.4193 O.2       3 UNK        -0.5208 
     27 CA         24.8978   -2.9160   -5.9918 C.3       3 UNK         0.0250 
     28 CB         26.1226   -3.3548   -6.8118 C.3       3 UNK        -0.1990 
     29 N          24.7069   -3.8489   -4.8770 N.am      3 UNK        -0.4232 
     30 C          23.5678   -3.9743   -4.1829 C.2       2 UNK         0.4993 
     31 O          22.5356   -3.3571   -4.4479 O.2       2 UNK        -0.5286 
     32 CA         23.5720   -4.9395   -2.9850 C.3       2 UNK         0.0209 
     33 CB         22.9316   -6.2814   -3.3773 C.3       2 UNK        -0.1931 
     34 N          24.8873   -5.1983   -2.3855 N.am      2 UNK        -0.4546 
     35 C          25.6843   -4.2931   -1.7967 C.2       1 UNK         0.5154 
     36 O          25.4713   -3.0796   -1.8419 O.2       1 UNK        -0.5181 
     37 C          28.4338    3.5130   -4.4231 C.2       5 UNK         0.5014 
     38 O          28.5479    4.7079   -4.1401 O.2       5 UNK        -0.5248 
     39 N          28.1586    3.0767   -5.6572 N.am      6 UNK        -0.4434 
     40 CA         27.8129    3.9250   -6.7954 C.3       6 UNK         0.0363 
     41 CB         26.2812    4.1024   -6.8249 C.3       6 UNK        -0.1936 
     42 C          28.3293    3.3193   -8.1068 C.2       6 UNK         0.5081 
     43 O          28.8825    2.2164   -8.1152 O.2       6 UNK        -0.5248 
     44 N          28.0979    4.0413   -9.2123 N.am      7 UNK        -0.4718 
     45 CA         28.4801    3.6812  -10.5854 C.3       7 UNK         0.0273 
     46 CB         28.1031    4.8363  -11.5272 C.3       7 UNK        -0.1935 
     47 C          27.8938    2.3534  -11.1054 C.2       7 UNK         0.5018 
     48 O          28.4295    1.8015  -12.0661 O.2       7 UNK        -0.5186 
     49 N          26.8319    1.8513  -10.4585 N.am      8 UNK        -0.4240 
     50 CA         26.2793    0.5121  -10.6755 C.3       8 UNK         0.0235 
     51 CB         24.9385    0.3874   -9.9352 C.3       8 UNK        -0.2000 
     52 C          27.2453   -0.6093  -10.2460 C.2       8 UNK         0.4941 
     53 O          27.2634   -1.6601  -10.8882 O.2       8 UNK        -0.5273 
     54 N          28.0393   -0.3614   -9.1942 N.am      9 UNK        -0.4262 
     55 CA         29.1375   -1.2264   -8.7637 C.3       9 UNK         0.0264 
     56 CB         29.2744   -1.1645   -7.2366 C.3       9 UNK        -0.1955 
     57 C          30.4580   -0.8096   -9.4255 C.2       9 UNK         0.5031 
     58 O          31.2595   -1.6805   -9.7661 O.2       9 UNK        -0.5390 
     59 N          30.6731    0.5077   -9.5723 N.am      10 UNK        -0.4204 
     60 CA         31.8149    1.2015  -10.1917 C.3       10 UNK         0.0237 
     61 CB         31.9860    0.8017  -11.6702 C.3       10 UNK        -0.1985 
     62 C          33.1479    1.0842   -9.4287 C.2       10 UNK         0.4970 
     63 O          33.9180    2.0450   -9.4342 O.2       10 UNK        -0.4914 
     64 N          33.3872   -0.0615   -8.7810 N.am      11 UNK        -0.4285 
     65 CA         34.5306   -0.3640   -7.9025 C.3       11 UNK         0.1007 
     66 C          35.8955   -0.5227   -8.6387 C.2       11 UNK         0.5703 
     67 N          35.9232   -0.6649   -9.9588 N.am      11 UNK        -0.7361 
     68 O          36.9476   -0.5526   -8.0040 O.2       11 UNK        -0.4986 
     69 C69        34.6240    0.5776   -6.6640 C.3       12 UNK        -0.0947 
     70 S70        33.0491    0.7346   -5.7555 S.3       12 UNK        -0.2240 
     71 C71        33.2658   -0.5203   -4.4617 C.3       12 UNK         0.0194 
     72 H72        27.6718   -8.7295   -1.6217 H         1 UNK         0.0906 
     73 H73        27.3281   -9.1653    0.0531 H         1 UNK         0.0906 
     74 H74        26.0456   -9.2350   -1.1582 H         1 UNK         0.0906 
     75 H75        27.8251   -6.5060   -1.9103 H         1 UNK         0.3140 
     76 H76        26.6683   -4.6604    0.0278 H         1 UNK         0.1085 
     77 H77        28.0367   -2.9581   -1.0839 H         1 UNK         0.0836 
     78 H78        28.9771   -4.3189   -0.5780 H         1 UNK         0.0836 
     79 H79        28.7196   -2.6448   -4.7461 H         1 UNK         0.0731 
     80 H80        27.7422   -2.1607   -3.3908 H         1 UNK         0.0731 
     81 H81        31.1418   -2.1809   -4.8310 H         1 UNK         0.1312 
     82 H82        32.5982    0.9101   -2.2465 H         1 UNK         0.1406 
     83 H83        28.7533   -0.8462   -1.5298 H         1 UNK         0.1631 
     84 H84        31.2701    1.7813   -0.4887 H         1 UNK         0.0717 
     85 H85        30.5540    0.4351    0.3637 H         1 UNK         0.0717 
     86 H86        28.4219    3.9181   -1.6934 H         1 UNK         0.0934 
     87 H87        30.0421    3.3792   -2.0367 H         1 UNK         0.0934 
     88 H88        29.2838    1.7238   -3.6373 H         1 UNK         0.0739 
     89 H89        26.6723    2.0179   -2.4026 H         1 UNK         0.3093 
     90 H90        25.5304   -0.1271   -2.5320 H         1 UNK         0.0818 
     91 H91        24.3883    1.9500   -3.1846 H         1 UNK         0.0819 
     92 H92        24.2697    1.4330   -4.8560 H         1 UNK         0.0819 
     93 H93        23.3514    0.5984   -3.6037 H         1 UNK         0.0819 
     94 H94        25.3209   -1.9922   -3.6378 H         1 UNK         0.3041 
     95 H95        24.0226   -2.9806   -6.6422 H         1 UNK         0.0784 
     96 H96        27.0256   -3.3875   -6.2037 H         1 UNK         0.0793 
     97 H97        25.9748   -4.3448   -7.2434 H         1 UNK         0.0793 
     98 H98        26.3078   -2.6681   -7.6395 H         1 UNK         0.0793 
     99 H99        25.5029   -4.4025   -4.5947 H         1 UNK         0.3024 
    100 H100       22.9518   -4.4784   -2.2129 H         1 UNK         0.1171 
    101 H101       23.5262   -6.8092   -4.1241 H         1 UNK         0.0786 
    102 H102       22.8183   -6.9359   -2.5127 H         1 UNK         0.0786 
    103 H103       21.9364   -6.1323   -3.7991 H         1 UNK         0.0786 
    104 H104       25.1594   -6.1669   -2.2996 H         1 UNK         0.2977 
    105 H105       28.1015    2.0727   -5.8155 H         1 UNK         0.3127 
    106 H106       28.2892    4.9015   -6.6849 H         1 UNK         0.0770 
    107 H107       25.7700    3.1483   -6.9626 H         1 UNK         0.0814 
    108 H108       25.9644    4.7654   -7.6304 H         1 UNK         0.0814 
    109 H109       25.9172    4.5402   -5.8952 H         1 UNK         0.0814 
    110 H110       27.6324    4.9318   -9.1071 H         1 UNK         0.2983 
    111 H111       29.5659    3.5722  -10.6014 H         1 UNK         0.0947 
    112 H112       28.4026    4.6184  -12.5536 H         1 UNK         0.0806 
    113 H113       28.5994    5.7633  -11.2394 H         1 UNK         0.0806 
    114 H114       27.0275    5.0171  -11.5338 H         1 UNK         0.0806 
    115 H115       26.4453    2.3888   -9.6970 H         1 UNK         0.3000 
    116 H116       26.0929    0.3938  -11.7452 H         1 UNK         0.0850 
    117 H117       25.0545    0.5446   -8.8623 H         1 UNK         0.0810 
    118 H118       24.5065   -0.6048  -10.0730 H         1 UNK         0.0810 
    119 H119       24.2115    1.1110  -10.3043 H         1 UNK         0.0810 
    120 H120       27.9790    0.5416   -8.7360 H         1 UNK         0.3040 
    121 H121       28.9243   -2.2604   -9.0430 H         1 UNK         0.0766 
    122 H122       29.5758   -0.1758   -6.8871 H         1 UNK         0.0812 
    123 H123       28.3331   -1.4101   -6.7484 H         1 UNK         0.0812 
    124 H124       30.0225   -1.8765   -6.8887 H         1 UNK         0.0812 
    125 H125       29.9909    1.1270   -9.1380 H         1 UNK         0.3205 
    126 H126       31.5503    2.2593  -10.1703 H         1 UNK         0.0754 
    127 H127       32.7619    1.4014  -12.1479 H         1 UNK         0.0769 
    128 H128       31.0649    0.9584  -12.2314 H         1 UNK         0.0769 
    129 H129       32.2716   -0.2446  -11.7815 H         1 UNK         0.0769 
    130 H130       32.7144   -0.8111   -8.9127 H         1 UNK         0.2981 
    131 H131       34.3211   -1.3625   -7.5180 H         1 UNK         0.0541 
    132 H132       36.8092   -0.7787  -10.4254 H         1 UNK         0.3459 
    133 H133       35.0677   -0.6549  -10.4901 H         1 UNK         0.3459 
    134 H134       34.9334    1.5779   -6.9703 H         1 UNK         0.0612 
    135 H135       35.3920    0.2277   -5.9720 H         1 UNK         0.0612 
    136 H136       33.4996   -1.4816   -4.9221 H         1 UNK         0.0624 
    137 H137       34.1187   -0.2562   -3.8346 H         1 UNK         0.0624 
@<TRIPOS>BOND
     1    1    2 1    
     2    1   72 1    
     3    1   73 1    
     4    1   74 1    
     5    2    3 2    
     6    2    4 am   BACKBONE|DICT|INTERRES
     7    4    5 1    
     8    4   75 1    
     9    5    6 1    
    10    5   35 1    
    11    5   76 1    
    12    6    7 1    
    13    6   77 1    
    14    6   78 1    
    15    7    8 1    
    16    8    9 1    
    17    8   79 1    
    18    8   80 1    
    19    9   10 ar   
    20    9   14 ar   
    21   10   11 ar   
    22   10   81 1    
    23   11   12 ar   
    24   11   71 1    
    25   12   13 ar   
    26   12   82 1    
    27   13   14 ar   
    28   13   15 1    
    29   14   83 1    
    30   15   16 1    
    31   15   84 1    
    32   15   85 1    
    33   16   17 1    
    34   17   18 1    
    35   17   86 1    
    36   17   87 1    
    37   18   19 1    
    38   18   37 1    
    39   18   88 1    
    40   19   20 am   BACKBONE|DICT|INTERRES
    41   19   89 1    
    42   20   21 2    
    43   20   22 1    
    44   22   23 1    
    45   22   24 1    
    46   22   90 1    
    47   23   91 1    
    48   23   92 1    
    49   23   93 1    
    50   24   25 am   BACKBONE|DICT|INTERRES
    51   24   94 1    
    52   25   26 2    
    53   25   27 1    
    54   27   28 1    
    55   27   29 1    
    56   27   95 1    
    57   28   96 1    
    58   28   97 1    
    59   28   98 1    
    60   29   30 am   BACKBONE|DICT|INTERRES
    61   29   99 1    
    62   30   31 2    
    63   30   32 1    
    64   32   33 1    
    65   32   34 1    
    66   32  100 1    
    67   33  101 1    
    68   33  102 1    
    69   33  103 1    
    70   34   35 am   BACKBONE|DICT|INTERRES
    71   34  104 1    
    72   35   36 2    
    73   37   38 2    
    74   37   39 am   BACKBONE|DICT|INTERRES
    75   39   40 1    
    76   39  105 1    
    77   40   41 1    
    78   40   42 1    
    79   40  106 1    
    80   41  107 1    
    81   41  108 1    
    82   41  109 1    
    83   42   43 2    
    84   42   44 am   BACKBONE|DICT|INTERRES
    85   44   45 1    
    86   44  110 1    
    87   45   46 1    
    88   45   47 1    
    89   45  111 1    
    90   46  112 1    
    91   46  113 1    
    92   46  114 1    
    93   47   48 2    
    94   47   49 am   BACKBONE|DICT|INTERRES
    95   49   50 1    
    96   49  115 1    
    97   50   51 1    
    98   50   52 1    
    99   50  116 1    
   100   51  117 1    
   101   51  118 1    
   102   51  119 1    
   103   52   53 2    
   104   52   54 am   BACKBONE|DICT|INTERRES
   105   54   55 1    
   106   54  120 1    
   107   55   56 1    
   108   55   57 1    
   109   55  121 1    
   110   56  122 1    
   111   56  123 1    
   112   56  124 1    
   113   57   58 2    
   114   57   59 am   BACKBONE|DICT|INTERRES
   115   59   60 1    
   116   59  125 1    
   117   60   61 1    
   118   60   62 1    
   119   60  126 1    
   120   61  127 1    
   121   61  128 1    
   122   61  129 1    
   123   62   63 2    
   124   62   64 am   BACKBONE|DICT|INTERRES
   125   64   65 1    
   126   64  130 1    
   127   65   66 1    
   128   65   69 1    
   129   65  131 1    
   130   66   67 am   BACKBONE|DICT|INTERRES
   131   66   68 2    
   132   67  132 1    
   133   67  133 1    
   134   69   70 1    
   135   69  134 1    
   136   69  135 1    
   137   70   71 1    
   138   71  136 1    
   139   71  137 1    
@<TRIPOS>SUBSTRUCTURE
     1 UNK         1 GROUP             0       ****    0 ROOT    
