@<TRIPOS>MOLECULE
3R137
137   139    1
SMALL
USER_CHARGES


@<TRIPOS>ATOM
      1 CA         29.0338   -5.6734    1.3545 C.3       0 UNK        -0.2020 
      2 C          28.8250   -4.1736    1.5018 C.2       0 UNK         0.4855 
      3 O          29.4223   -3.5567    2.3842 O.2       0 UNK        -0.5197 
      4 N          27.9837   -3.5852    0.6450 N.am      1 UNK        -0.4892 
      5 CA         27.6366   -2.1602    0.6561 C.3       1 UNK         0.0835 
      6 C6         28.7753   -1.2297    0.1448 C.3       12 UNK        -0.0855 
      7 S7         29.1558   -1.3644   -1.6385 S.3       12 UNK        -0.2931 
      8 C8         30.4856   -2.6009   -1.6395 C.3       12 UNK         0.0378 
      9 C9         30.8041   -3.0478   -3.0567 C.ar      12 UNK        -0.0802 
     10 C10        31.9895   -2.6450   -3.6765 C.ar      12 UNK        -0.0944 
     11 C11        32.2938   -3.0648   -4.9770 C.ar      12 UNK        -0.0787 
     12 C12        31.3975   -3.9054   -5.6488 C.ar      12 UNK        -0.0862 
     13 C13        30.2133   -4.3270   -5.0332 C.ar      12 UNK        -0.0733 
     14 C14        29.9204   -3.8884   -3.7393 C.ar      12 UNK        -0.0832 
     15 C15        29.2841   -5.3098   -5.7357 C.3       12 UNK         0.0240 
     16 S16        28.3609   -4.5613   -7.1133 S.3       12 UNK        -0.2522 
     17 C17        27.1016   -3.5599   -6.2497 C.3       12 UNK        -0.0967 
     18 CA         26.6885   -2.3292   -7.0942 C.3       5 UNK         0.0660 
     19 N          25.3762   -1.7940   -6.7234 N.am      5 UNK        -0.4015 
     20 C          24.6716   -0.9400   -7.4827 C.2       4 UNK         0.4946 
     21 O          25.0324   -0.5502   -8.5929 O.2       4 UNK        -0.5353 
     22 CA         23.3600   -0.3954   -6.8927 C.3       4 UNK         0.0277 
     23 CB         22.2149   -1.4009   -7.0929 C.3       4 UNK        -0.1981 
     24 N          23.4762   -0.0534   -5.4742 N.am      4 UNK        -0.4209 
     25 C          24.2666    0.9167   -4.9925 C.2       3 UNK         0.4942 
     26 O          24.9343    1.6709   -5.6986 O.2       3 UNK        -0.5208 
     27 CA         24.3667    1.0362   -3.4623 C.3       3 UNK         0.0250 
     28 CB         23.2765    1.9761   -2.9240 C.3       3 UNK        -0.1990 
     29 N          24.3033   -0.2475   -2.7531 N.am      3 UNK        -0.4232 
     30 C          25.1327   -1.2812   -2.9529 C.2       2 UNK         0.4993 
     31 O          26.0215   -1.3002   -3.8086 O.2       2 UNK        -0.5286 
     32 CA         24.9302   -2.5113   -2.0589 C.3       2 UNK         0.0209 
     33 CB         24.7622   -3.7862   -2.9040 C.3       2 UNK        -0.1931 
     34 N          26.0860   -2.6639   -1.1800 N.am      2 UNK        -0.4546 
     35 C          26.2998   -1.9345   -0.0740 C.2       1 UNK         0.5154 
     36 O          25.4820   -1.1346    0.3839 O.2       1 UNK        -0.5181 
     37 C          27.7565   -1.2245   -7.0575 C.2       5 UNK         0.5014 
     38 O          28.5200   -1.0999   -8.0142 O.2       5 UNK        -0.5248 
     39 N          27.7495   -0.4110   -5.9900 N.am      6 UNK        -0.4434 
     40 CA         28.6247    0.7517   -5.8280 C.3       6 UNK         0.0363 
     41 CB         28.3494    1.4306   -4.4787 C.3       6 UNK        -0.1936 
     42 C          28.5013    1.7569   -6.9858 C.2       6 UNK         0.5081 
     43 O          29.5231    2.1925   -7.5150 O.2       6 UNK        -0.5248 
     44 N          27.2621    2.0639   -7.3932 N.am      7 UNK        -0.4718 
     45 CA         26.9577    2.9038   -8.5516 C.3       7 UNK         0.0273 
     46 CB         25.4550    3.2263   -8.5772 C.3       7 UNK        -0.1935 
     47 C          27.4048    2.2769   -9.8831 C.2       7 UNK         0.5018 
     48 O          28.0496    2.9612  -10.6782 O.2       7 UNK        -0.5186 
     49 N          27.0618    0.9989  -10.1046 N.am      8 UNK        -0.4240 
     50 CA         27.3616    0.2663  -11.3389 C.3       8 UNK         0.0235 
     51 CB         26.5956   -1.0664  -11.3548 C.3       8 UNK        -0.2000 
     52 C          28.8621    0.0236  -11.5651 C.2       8 UNK         0.4941 
     53 O          29.3411    0.2158  -12.6835 O.2       8 UNK        -0.5273 
     54 N          29.5742   -0.3984  -10.5126 N.am      9 UNK        -0.4262 
     55 CA         31.0017   -0.7216  -10.5615 C.3       9 UNK         0.0264 
     56 CB         31.3164   -1.7568   -9.4665 C.3       9 UNK        -0.1955 
     57 C          31.9183    0.5065  -10.4208 C.2       9 UNK         0.5031 
     58 O          33.1214    0.3619  -10.6428 O.2       9 UNK        -0.5390 
     59 N          31.3589    1.6658  -10.0325 N.am      10 UNK        -0.4204 
     60 CA         32.0579    2.8936   -9.6215 C.3       10 UNK         0.0237 
     61 CB         32.8171    3.5358  -10.8025 C.3       10 UNK        -0.1985 
     62 C          32.9469    2.6151   -8.3940 C.2       10 UNK         0.4970 
     63 O          34.1632    2.8119   -8.4353 O.2       10 UNK        -0.4914 
     64 N          32.3002    2.0919   -7.3506 N.am      11 UNK        -0.4285 
     65 CA         32.8987    1.4880   -6.1592 C.3       11 UNK         0.1007 
     66 C          32.2699    2.0661   -4.8589 C.2       11 UNK         0.5703 
     67 N          32.4838    1.4272   -3.7177 N.am      11 UNK        -0.7361 
     68 O          31.6150    3.1070   -4.8623 O.2       11 UNK        -0.4986 
     69 C69        32.8193   -0.0614   -6.2774 C.3       12 UNK        -0.0947 
     70 S70        34.1150   -0.9407   -5.3525 S.3       12 UNK        -0.2240 
     71 C71        33.6105   -2.6708   -5.6461 C.3       12 UNK         0.0194 
     72 H72        30.0861   -5.8884    1.1705 H         1 UNK         0.0906 
     73 H73        28.7365   -6.1852    2.2695 H         1 UNK         0.0906 
     74 H74        28.4547   -6.0888    0.5300 H         1 UNK         0.0906 
     75 H75        27.4636   -4.1543   -0.0076 H         1 UNK         0.3140 
     76 H76        27.4465   -1.8920    1.6983 H         1 UNK         0.1085 
     77 H77        28.5047   -0.1905    0.3404 H         1 UNK         0.0836 
     78 H78        29.6877   -1.3974    0.7187 H         1 UNK         0.0836 
     79 H79        31.3677   -2.1820   -1.1528 H         1 UNK         0.0731 
     80 H80        30.1900   -3.4693   -1.0515 H         1 UNK         0.0731 
     81 H81        32.6812   -2.0113   -3.1394 H         1 UNK         0.1312 
     82 H82        31.6290   -4.2532   -6.6465 H         1 UNK         0.1406 
     83 H83        29.0101   -4.2111   -3.2531 H         1 UNK         0.1631 
     84 H84        28.5790   -5.7546   -5.0316 H         1 UNK         0.0717 
     85 H85        29.8786   -6.1362   -6.1275 H         1 UNK         0.0717 
     86 H86        26.2389   -4.2057   -6.0790 H         1 UNK         0.0934 
     87 H87        27.4583   -3.2622   -5.2616 H         1 UNK         0.0934 
     88 H88        26.5999   -2.6553   -8.1333 H         1 UNK         0.0739 
     89 H89        25.0607   -1.9869   -5.7835 H         1 UNK         0.3093 
     90 H90        23.1100    0.5185   -7.4362 H         1 UNK         0.0818 
     91 H91        21.2624   -0.9890   -6.7587 H         1 UNK         0.0819 
     92 H92        22.1022   -1.6564   -8.1476 H         1 UNK         0.0819 
     93 H93        22.3886   -2.3306   -6.5495 H         1 UNK         0.0819 
     94 H94        22.9526   -0.6150   -4.8188 H         1 UNK         0.3041 
     95 H95        25.3374    1.4794   -3.2339 H         1 UNK         0.0784 
     96 H96        23.3174    2.9461   -3.4221 H         1 UNK         0.0793 
     97 H97        22.2765    1.5703   -3.0827 H         1 UNK         0.0793 
     98 H98        23.4005    2.1583   -1.8563 H         1 UNK         0.0793 
     99 H99        23.6171   -0.3153   -2.0148 H         1 UNK         0.3024 
    100 H100       24.0303   -2.3807   -1.4530 H         1 UNK         0.1171 
    101 H101       23.9163   -3.6948   -3.5866 H         1 UNK         0.0786 
    102 H102       24.5750   -4.6555   -2.2733 H         1 UNK         0.0786 
    103 H103       25.6471   -3.9966   -3.5058 H         1 UNK         0.0786 
    104 H104       26.8597   -3.1896   -1.5573 H         1 UNK         0.2977 
    105 H105       27.1021   -0.6114   -5.2304 H         1 UNK         0.3127 
    106 H106       29.6499    0.3800   -5.8177 H         1 UNK         0.0770 
    107 H107       27.3457    1.8509   -4.4356 H         1 UNK         0.0814 
    108 H108       29.0498    2.2479   -4.3048 H         1 UNK         0.0814 
    109 H109       28.4563    0.7296   -3.6516 H         1 UNK         0.0814 
    110 H110       26.4689    1.7045   -6.8674 H         1 UNK         0.2983 
    111 H111       27.5032    3.8425   -8.4315 H         1 UNK         0.0947 
    112 H112       25.2037    3.8570   -9.4310 H         1 UNK         0.0806 
    113 H113       25.1508    3.7616   -7.6776 H         1 UNK         0.0806 
    114 H114       24.8484    2.3224   -8.6466 H         1 UNK         0.0806 
    115 H115       26.5078    0.5077   -9.4079 H         1 UNK         0.3000 
    116 H116       27.0000    0.8701  -12.1740 H         1 UNK         0.0850 
    117 H117       26.8010   -1.6266  -12.2680 H         1 UNK         0.0810 
    118 H118       25.5186   -0.9041  -11.3101 H         1 UNK         0.0810 
    119 H119       26.8731   -1.7002  -10.5116 H         1 UNK         0.0810 
    120 H120       29.1030   -0.5616   -9.6210 H         1 UNK         0.3040 
    121 H121       31.2254   -1.1805  -11.5270 H         1 UNK         0.0766 
    122 H122       32.3649   -2.0560   -9.4951 H         1 UNK         0.0812 
    123 H123       30.7175   -2.6594   -9.5896 H         1 UNK         0.0812 
    124 H124       31.1170   -1.3621   -8.4701 H         1 UNK         0.0812 
    125 H125       30.3618    1.6610   -9.8604 H         1 UNK         0.3205 
    126 H126       31.2882    3.5979   -9.3013 H         1 UNK         0.0754 
    127 H127       33.2490    4.4934  -10.5095 H         1 UNK         0.0769 
    128 H128       32.1508    3.7236  -11.6444 H         1 UNK         0.0769 
    129 H129       33.6349    2.9075  -11.1561 H         1 UNK         0.0769 
    130 H130       31.2805    2.0718   -7.3799 H         1 UNK         0.2981 
    131 H131       33.9490    1.7816   -6.1213 H         1 UNK         0.0541 
    132 H132       32.0943    1.7929   -2.8638 H         1 UNK         0.3459 
    133 H133       33.0287    0.5785   -3.7084 H         1 UNK         0.3459 
    134 H134       32.9479   -0.3597   -7.3189 H         1 UNK         0.0612 
    135 H135       31.8370   -0.4304   -5.9793 H         1 UNK         0.0612 
    136 H136       33.5574   -2.8361   -6.7235 H         1 UNK         0.0624 
    137 H137       34.3961   -3.3275   -5.2710 H         1 UNK         0.0624 
@<TRIPOS>BOND
     1    1    2 1    
     2    1   72 1    
     3    1   73 1    
     4    1   74 1    
     5    2    3 2    
     6    2    4 am   BACKBONE|DICT|INTERRES
     7    4    5 1    
     8    4   75 1    
     9    5    6 1    
    10    5   35 1    
    11    5   76 1    
    12    6    7 1    
    13    6   77 1    
    14    6   78 1    
    15    7    8 1    
    16    8    9 1    
    17    8   79 1    
    18    8   80 1    
    19    9   10 ar   
    20    9   14 ar   
    21   10   11 ar   
    22   10   81 1    
    23   11   12 ar   
    24   11   71 1    
    25   12   13 ar   
    26   12   82 1    
    27   13   14 ar   
    28   13   15 1    
    29   14   83 1    
    30   15   16 1    
    31   15   84 1    
    32   15   85 1    
    33   16   17 1    
    34   17   18 1    
    35   17   86 1    
    36   17   87 1    
    37   18   19 1    
    38   18   37 1    
    39   18   88 1    
    40   19   20 am   BACKBONE|DICT|INTERRES
    41   19   89 1    
    42   20   21 2    
    43   20   22 1    
    44   22   23 1    
    45   22   24 1    
    46   22   90 1    
    47   23   91 1    
    48   23   92 1    
    49   23   93 1    
    50   24   25 am   BACKBONE|DICT|INTERRES
    51   24   94 1    
    52   25   26 2    
    53   25   27 1    
    54   27   28 1    
    55   27   29 1    
    56   27   95 1    
    57   28   96 1    
    58   28   97 1    
    59   28   98 1    
    60   29   30 am   BACKBONE|DICT|INTERRES
    61   29   99 1    
    62   30   31 2    
    63   30   32 1    
    64   32   33 1    
    65   32   34 1    
    66   32  100 1    
    67   33  101 1    
    68   33  102 1    
    69   33  103 1    
    70   34   35 am   BACKBONE|DICT|INTERRES
    71   34  104 1    
    72   35   36 2    
    73   37   38 2    
    74   37   39 am   BACKBONE|DICT|INTERRES
    75   39   40 1    
    76   39  105 1    
    77   40   41 1    
    78   40   42 1    
    79   40  106 1    
    80   41  107 1    
    81   41  108 1    
    82   41  109 1    
    83   42   43 2    
    84   42   44 am   BACKBONE|DICT|INTERRES
    85   44   45 1    
    86   44  110 1    
    87   45   46 1    
    88   45   47 1    
    89   45  111 1    
    90   46  112 1    
    91   46  113 1    
    92   46  114 1    
    93   47   48 2    
    94   47   49 am   BACKBONE|DICT|INTERRES
    95   49   50 1    
    96   49  115 1    
    97   50   51 1    
    98   50   52 1    
    99   50  116 1    
   100   51  117 1    
   101   51  118 1    
   102   51  119 1    
   103   52   53 2    
   104   52   54 am   BACKBONE|DICT|INTERRES
   105   54   55 1    
   106   54  120 1    
   107   55   56 1    
   108   55   57 1    
   109   55  121 1    
   110   56  122 1    
   111   56  123 1    
   112   56  124 1    
   113   57   58 2    
   114   57   59 am   BACKBONE|DICT|INTERRES
   115   59   60 1    
   116   59  125 1    
   117   60   61 1    
   118   60   62 1    
   119   60  126 1    
   120   61  127 1    
   121   61  128 1    
   122   61  129 1    
   123   62   63 2    
   124   62   64 am   BACKBONE|DICT|INTERRES
   125   64   65 1    
   126   64  130 1    
   127   65   66 1    
   128   65   69 1    
   129   65  131 1    
   130   66   67 am   BACKBONE|DICT|INTERRES
   131   66   68 2    
   132   67  132 1    
   133   67  133 1    
   134   69   70 1    
   135   69  134 1    
   136   69  135 1    
   137   70   71 1    
   138   71  136 1    
   139   71  137 1    
@<TRIPOS>SUBSTRUCTURE
     1 UNK         1 GROUP             0       ****    0 ROOT    
