@<TRIPOS>MOLECULE
3R137
137   139    1
SMALL
USER_CHARGES


@<TRIPOS>ATOM
      1 CA         25.5540   -6.8906   -4.4827 C.3       0 UNK        -0.2020 
      2 C          25.7319   -5.9498   -3.3009 C.2       0 UNK         0.4855 
      3 O          24.7688   -5.3103   -2.8762 O.2       0 UNK        -0.5197 
      4 N          26.9555   -5.8557   -2.7635 N.am      1 UNK        -0.4892 
      5 CA         27.3125   -4.9304   -1.6841 C.3       1 UNK         0.0835 
      6 C6         28.6898   -5.2799   -1.0712 C.3       12 UNK        -0.0855 
      7 S7         29.0739   -4.2981    0.4240 S.3       12 UNK        -0.2931 
      8 C8         30.7528   -3.6794    0.0769 C.3       12 UNK         0.0378 
      9 C9         30.8166   -2.7376   -1.1204 C.ar      12 UNK        -0.0802 
     10 C10        31.2831   -3.2077   -2.3509 C.ar      12 UNK        -0.0944 
     11 C11        31.4077   -2.3452   -3.4411 C.ar      12 UNK        -0.0787 
     12 C12        31.0757   -0.9958   -3.2945 C.ar      12 UNK        -0.0862 
     13 C13        30.6083   -0.5066   -2.0698 C.ar      12 UNK        -0.0733 
     14 C14        30.4699   -1.3879   -0.9889 C.ar      12 UNK        -0.0832 
     15 C15        30.3205    0.9808   -1.8883 C.3       12 UNK         0.0240 
     16 S16        28.8210    1.5372   -2.7631 S.3       12 UNK        -0.2522 
     17 C17        29.4892    2.1358   -4.3524 C.3       12 UNK        -0.0967 
     18 CA         28.6344    1.7922   -5.5990 C.3       5 UNK         0.0660 
     19 N          28.2404    0.3835   -5.6912 N.am      5 UNK        -0.4015 
     20 C          27.9747   -0.2288   -6.8540 C.2       4 UNK         0.4946 
     21 O          28.1014    0.3152   -7.9537 O.2       4 UNK        -0.5353 
     22 CA         27.4875   -1.6839   -6.7909 C.3       4 UNK         0.0277 
     23 CB         28.6604   -2.6394   -6.5279 C.3       4 UNK        -0.1981 
     24 N          26.4440   -1.8920   -5.7862 N.am      4 UNK        -0.4209 
     25 C          25.2105   -1.3663   -5.8631 C.2       3 UNK         0.4942 
     26 O          24.8296   -0.6542   -6.7899 O.2       3 UNK        -0.5208 
     27 CA         24.2435   -1.6433   -4.6971 C.3       3 UNK         0.0250 
     28 CB         23.4287   -2.9165   -4.9706 C.3       3 UNK        -0.1990 
     29 N          24.9167   -1.7570   -3.4022 N.am      3 UNK        -0.4232 
     30 C          25.6889   -0.8029   -2.8606 C.2       2 UNK         0.4993 
     31 O          25.8206    0.3168   -3.3530 O.2       2 UNK        -0.5286 
     32 CA         26.4934   -1.1613   -1.5985 C.3       2 UNK         0.0209 
     33 CB         25.8802   -0.4950   -0.3574 C.3       2 UNK        -0.1931 
     34 N          26.6503   -2.5975   -1.3522 N.am      2 UNK        -0.4546 
     35 C          27.2376   -3.4717   -2.1823 C.2       1 UNK         0.5154 
     36 O          27.6749   -3.1765   -3.2987 O.2       1 UNK        -0.5181 
     37 C          27.4336    2.7397   -5.7914 C.2       5 UNK         0.5014 
     38 O          27.6080    3.7829   -6.4217 O.2       5 UNK        -0.5248 
     39 N          26.2343    2.3598   -5.3200 N.am      6 UNK        -0.4434 
     40 CA         24.9895    3.1097   -5.5386 C.3       6 UNK         0.0363 
     41 CB         23.8497    2.4934   -4.7145 C.3       6 UNK        -0.1936 
     42 C          24.5892    3.2068   -7.0226 C.2       6 UNK         0.5081 
     43 O          24.1132    4.2578   -7.4518 O.2       6 UNK        -0.5248 
     44 N          24.8270    2.1329   -7.7894 N.am      7 UNK        -0.4718 
     45 CA         24.6554    2.0898   -9.2460 C.3       7 UNK         0.0273 
     46 CB         24.5466    0.6214   -9.6912 C.3       7 UNK        -0.1935 
     47 C          25.7827    2.7964  -10.0250 C.2       7 UNK         0.5018 
     48 O          25.6787    2.9037  -11.2474 O.2       7 UNK        -0.5186 
     49 N          26.8417    3.2326   -9.3245 N.am      8 UNK        -0.4240 
     50 CA         28.0701    3.8495   -9.8401 C.3       8 UNK         0.0235 
     51 CB         27.7720    5.1953  -10.5353 C.3       8 UNK        -0.2000 
     52 C          28.9253    2.9032  -10.7070 C.2       8 UNK         0.4941 
     53 O          29.7453    3.3785  -11.4947 O.2       8 UNK        -0.5273 
     54 N          28.7473    1.5860  -10.5332 N.am      9 UNK        -0.4262 
     55 CA         29.5781    0.5506  -11.1485 C.3       9 UNK         0.0264 
     56 CB         28.7766   -0.7581  -11.2523 C.3       9 UNK        -0.1955 
     57 C          30.8685    0.3405  -10.3418 C.2       9 UNK         0.5031 
     58 O          31.9388    0.2013  -10.9361 O.2       9 UNK        -0.5390 
     59 N          30.7299    0.3520   -9.0068 N.am      10 UNK        -0.4204 
     60 CA         31.7721    0.1732   -7.9919 C.3       10 UNK         0.0237 
     61 CB         32.7381    1.3796   -7.9932 C.3       10 UNK        -0.1985 
     62 C          32.4780   -1.1954   -8.0955 C.2       10 UNK         0.4970 
     63 O          31.8869   -2.1551   -8.5954 O.2       10 UNK        -0.4914 
     64 N          33.7030   -1.2756   -7.5714 N.am      11 UNK        -0.4285 
     65 CA         34.5407   -2.4774   -7.5103 C.3       11 UNK         0.1007 
     66 C          36.0247   -2.1002   -7.2559 C.2       11 UNK         0.5703 
     67 N          36.9421   -3.0460   -7.4057 N.am      11 UNK        -0.7361 
     68 O          36.3551   -0.9604   -6.9285 O.2       11 UNK        -0.4986 
     69 C69        33.9994   -3.5493   -6.5182 C.3       12 UNK        -0.0947 
     70 S70        33.7272   -2.9318   -4.8198 S.3       12 UNK        -0.2240 
     71 C71        31.9109   -2.8756   -4.7723 C.3       12 UNK         0.0194 
     72 H72        25.2086   -6.3353   -5.3543 H         1 UNK         0.0906 
     73 H73        26.4837   -7.3939   -4.7478 H         1 UNK         0.0906 
     74 H74        24.8110   -7.6520   -4.2472 H         1 UNK         0.0906 
     75 H75        27.7194   -6.3761   -3.1707 H         1 UNK         0.3140 
     76 H76        26.5625   -5.0596   -0.9000 H         1 UNK         0.1085 
     77 H77        29.4757   -5.1727   -1.8180 H         1 UNK         0.0836 
     78 H78        28.7040   -6.3310   -0.7785 H         1 UNK         0.0836 
     79 H79        31.4212   -4.5296   -0.0691 H         1 UNK         0.0731 
     80 H80        31.1215   -3.1593    0.9623 H         1 UNK         0.0731 
     81 H81        31.5664   -4.2454   -2.4609 H         1 UNK         0.1312 
     82 H82        31.2001   -0.3285   -4.1336 H         1 UNK         0.1406 
     83 H83        30.1215   -1.0203   -0.0331 H         1 UNK         0.1631 
     84 H84        31.1829    1.5657   -2.2112 H         1 UNK         0.0717 
     85 H85        30.1914    1.2084   -0.8291 H         1 UNK         0.0717 
     86 H86        29.6367    3.2150   -4.2749 H         1 UNK         0.0934 
     87 H87        30.4907    1.7323   -4.4947 H         1 UNK         0.0934 
     88 H88        29.2870    1.9931   -6.4524 H         1 UNK         0.0739 
     89 H89        28.0875   -0.1026   -4.8185 H         1 UNK         0.3093 
     90 H90        27.0643   -1.9284   -7.7678 H         1 UNK         0.0818 
     91 H91        29.4525   -2.5021   -7.2653 H         1 UNK         0.0819 
     92 H92        29.0950   -2.4794   -5.5409 H         1 UNK         0.0819 
     93 H93        28.3428   -3.6806   -6.5844 H         1 UNK         0.0819 
     94 H94        26.7010   -2.4320   -4.9651 H         1 UNK         0.3041 
     95 H95        23.5493   -0.8045   -4.6317 H         1 UNK         0.0784 
     96 H96        22.8638   -2.8241   -5.8993 H         1 UNK         0.0793 
     97 H97        24.0701   -3.7931   -5.0665 H         1 UNK         0.0793 
     98 H98        22.7114   -3.1109   -4.1730 H         1 UNK         0.0793 
     99 H99        24.8719   -2.6564   -2.9426 H         1 UNK         0.3024 
    100 H100       27.4972   -0.7604   -1.7418 H         1 UNK         0.1171 
    101 H101       26.5019   -0.6499    0.5246 H         1 UNK         0.0786 
    102 H102       25.7889    0.5830   -0.5002 H         1 UNK         0.0786 
    103 H103       24.8835   -0.8820   -0.1420 H         1 UNK         0.0786 
    104 H104       26.3240   -2.9322   -0.4568 H         1 UNK         0.2977 
    105 H105       26.1661    1.5239   -4.7410 H         1 UNK         0.3127 
    106 H106       25.1543    4.1267   -5.1766 H         1 UNK         0.0770 
    107 H107       23.6318    1.4752   -5.0342 H         1 UNK         0.0814 
    108 H108       22.9320    3.0727   -4.8236 H         1 UNK         0.0814 
    109 H109       24.0938    2.4689   -3.6524 H         1 UNK         0.0814 
    110 H110       25.1410    1.2730   -7.3484 H         1 UNK         0.2983 
    111 H111       23.7217    2.5953   -9.5018 H         1 UNK         0.0947 
    112 H112       24.3857    0.5448  -10.7673 H         1 UNK         0.0806 
    113 H113       23.7091    0.1213   -9.2048 H         1 UNK         0.0806 
    114 H114       25.4534    0.0622   -9.4553 H         1 UNK         0.0806 
    115 H115       26.8161    3.1168   -8.3182 H         1 UNK         0.3000 
    116 H116       28.6793    4.0681   -8.9619 H         1 UNK         0.0850 
    117 H117       28.6945    5.7296  -10.7656 H         1 UNK         0.0810 
    118 H118       27.1736    5.8464   -9.8979 H         1 UNK         0.0810 
    119 H119       27.2356    5.0578  -11.4745 H         1 UNK         0.0810 
    120 H120       28.0977    1.2788   -9.8177 H         1 UNK         0.3040 
    121 H121       29.8530    0.8621  -12.1587 H         1 UNK         0.0766 
    122 H122       27.8779   -0.6243  -11.8545 H         1 UNK         0.0812 
    123 H123       28.4710   -1.1295  -10.2734 H         1 UNK         0.0812 
    124 H124       29.3715   -1.5405  -11.7255 H         1 UNK         0.0812 
    125 H125       29.7788    0.4133   -8.6476 H         1 UNK         0.3205 
    126 H126       31.2525    0.1676   -7.0327 H         1 UNK         0.0754 
    127 H127       33.3807    1.3824   -7.1122 H         1 UNK         0.0769 
    128 H128       32.1891    2.3215   -7.9832 H         1 UNK         0.0769 
    129 H129       33.3813    1.3823   -8.8742 H         1 UNK         0.0769 
    130 H130       34.1486   -0.4494   -7.1950 H         1 UNK         0.2981 
    131 H131       34.5253   -2.9128   -8.5113 H         1 UNK         0.0541 
    132 H132       36.6877   -3.9831   -7.6764 H         1 UNK         0.3459 
    133 H133       37.9105   -2.8172   -7.2443 H         1 UNK         0.3459 
    134 H134       33.0651   -3.9610   -6.9018 H         1 UNK         0.0612 
    135 H135       34.6788   -4.4012   -6.4631 H         1 UNK         0.0612 
    136 H136       31.5102   -3.8752   -4.9482 H         1 UNK         0.0624 
    137 H137       31.5465   -2.2488   -5.5852 H         1 UNK         0.0624 
@<TRIPOS>BOND
     1    1    2 1    
     2    1   72 1    
     3    1   73 1    
     4    1   74 1    
     5    2    3 2    
     6    2    4 am   BACKBONE|DICT|INTERRES
     7    4    5 1    
     8    4   75 1    
     9    5    6 1    
    10    5   35 1    
    11    5   76 1    
    12    6    7 1    
    13    6   77 1    
    14    6   78 1    
    15    7    8 1    
    16    8    9 1    
    17    8   79 1    
    18    8   80 1    
    19    9   10 ar   
    20    9   14 ar   
    21   10   11 ar   
    22   10   81 1    
    23   11   12 ar   
    24   11   71 1    
    25   12   13 ar   
    26   12   82 1    
    27   13   14 ar   
    28   13   15 1    
    29   14   83 1    
    30   15   16 1    
    31   15   84 1    
    32   15   85 1    
    33   16   17 1    
    34   17   18 1    
    35   17   86 1    
    36   17   87 1    
    37   18   19 1    
    38   18   37 1    
    39   18   88 1    
    40   19   20 am   BACKBONE|DICT|INTERRES
    41   19   89 1    
    42   20   21 2    
    43   20   22 1    
    44   22   23 1    
    45   22   24 1    
    46   22   90 1    
    47   23   91 1    
    48   23   92 1    
    49   23   93 1    
    50   24   25 am   BACKBONE|DICT|INTERRES
    51   24   94 1    
    52   25   26 2    
    53   25   27 1    
    54   27   28 1    
    55   27   29 1    
    56   27   95 1    
    57   28   96 1    
    58   28   97 1    
    59   28   98 1    
    60   29   30 am   BACKBONE|DICT|INTERRES
    61   29   99 1    
    62   30   31 2    
    63   30   32 1    
    64   32   33 1    
    65   32   34 1    
    66   32  100 1    
    67   33  101 1    
    68   33  102 1    
    69   33  103 1    
    70   34   35 am   BACKBONE|DICT|INTERRES
    71   34  104 1    
    72   35   36 2    
    73   37   38 2    
    74   37   39 am   BACKBONE|DICT|INTERRES
    75   39   40 1    
    76   39  105 1    
    77   40   41 1    
    78   40   42 1    
    79   40  106 1    
    80   41  107 1    
    81   41  108 1    
    82   41  109 1    
    83   42   43 2    
    84   42   44 am   BACKBONE|DICT|INTERRES
    85   44   45 1    
    86   44  110 1    
    87   45   46 1    
    88   45   47 1    
    89   45  111 1    
    90   46  112 1    
    91   46  113 1    
    92   46  114 1    
    93   47   48 2    
    94   47   49 am   BACKBONE|DICT|INTERRES
    95   49   50 1    
    96   49  115 1    
    97   50   51 1    
    98   50   52 1    
    99   50  116 1    
   100   51  117 1    
   101   51  118 1    
   102   51  119 1    
   103   52   53 2    
   104   52   54 am   BACKBONE|DICT|INTERRES
   105   54   55 1    
   106   54  120 1    
   107   55   56 1    
   108   55   57 1    
   109   55  121 1    
   110   56  122 1    
   111   56  123 1    
   112   56  124 1    
   113   57   58 2    
   114   57   59 am   BACKBONE|DICT|INTERRES
   115   59   60 1    
   116   59  125 1    
   117   60   61 1    
   118   60   62 1    
   119   60  126 1    
   120   61  127 1    
   121   61  128 1    
   122   61  129 1    
   123   62   63 2    
   124   62   64 am   BACKBONE|DICT|INTERRES
   125   64   65 1    
   126   64  130 1    
   127   65   66 1    
   128   65   69 1    
   129   65  131 1    
   130   66   67 am   BACKBONE|DICT|INTERRES
   131   66   68 2    
   132   67  132 1    
   133   67  133 1    
   134   69   70 1    
   135   69  134 1    
   136   69  135 1    
   137   70   71 1    
   138   71  136 1    
   139   71  137 1    
@<TRIPOS>SUBSTRUCTURE
     1 UNK         1 GROUP             0       ****    0 ROOT    
