@<TRIPOS>MOLECULE
3R137
137   139    1
SMALL
USER_CHARGES


@<TRIPOS>ATOM
      1 CA         25.1938   -6.7864   -2.5406 C.3       0 UNK        -0.2020 
      2 C          25.4298   -5.5029   -1.7598 C.2       0 UNK         0.4855 
      3 O          24.4784   -4.7703   -1.4866 O.2       0 UNK        -0.5197 
      4 N          26.6933   -5.2192   -1.4136 N.am      1 UNK        -0.4892 
      5 CA         27.1498   -4.0189   -0.7011 C.3       1 UNK         0.0835 
      6 C6         28.6759   -4.0913   -0.4450 C.3       12 UNK        -0.0855 
      7 S7         29.2464   -2.8635    0.7752 S.3       12 UNK        -0.2931 
      8 C8         30.9857   -2.6444    0.2721 C.3       12 UNK         0.0378 
      9 C9         31.1425   -1.8594   -1.0265 C.ar      12 UNK        -0.0802 
     10 C10        31.8238   -2.4159   -2.1142 C.ar      12 UNK        -0.0944 
     11 C11        32.0325   -1.6716   -3.2809 C.ar      12 UNK        -0.0787 
     12 C12        31.5443   -0.3643   -3.3595 C.ar      12 UNK        -0.0862 
     13 C13        30.8352    0.1940   -2.2903 C.ar      12 UNK        -0.0733 
     14 C14        30.6489   -0.5554   -1.1245 C.ar      12 UNK        -0.0832 
     15 C15        30.2690    1.6073   -2.3748 C.3       12 UNK         0.0240 
     16 S16        29.3027    1.9248   -3.8894 S.3       12 UNK        -0.2522 
     17 C17        28.1208    0.5346   -3.9314 C.3       12 UNK        -0.0967 
     18 CA         28.2109   -0.2575   -5.2639 C.3       5 UNK         0.0660 
     19 N          27.7203   -1.6280   -5.1348 N.am      5 UNK        -0.4015 
     20 C          27.7163   -2.5752   -6.0866 C.2       4 UNK         0.4946 
     21 O          28.2058   -2.4448   -7.2081 O.2       4 UNK        -0.5353 
     22 CA         27.0085   -3.8928   -5.7314 C.3       4 UNK         0.0277 
     23 CB         27.9497   -4.8400   -4.9675 C.3       4 UNK        -0.1981 
     24 N          25.7966   -3.6410   -4.9476 N.am      4 UNK        -0.4209 
     25 C          24.6340   -3.2283   -5.4758 C.2       3 UNK         0.4942 
     26 O          24.4202   -3.1566   -6.6861 O.2       3 UNK        -0.5208 
     27 CA         23.5214   -2.8076   -4.4990 C.3       3 UNK         0.0250 
     28 CB         22.5432   -3.9678   -4.2549 C.3       3 UNK        -0.1990 
     29 N          24.0391   -2.3197   -3.2176 N.am      3 UNK        -0.4232 
     30 C          24.6224   -1.1224   -3.0514 C.2       2 UNK         0.4993 
     31 O          24.7536   -0.2937   -3.9541 O.2       2 UNK        -0.5286 
     32 CA         25.2084   -0.8150   -1.6592 C.3       2 UNK         0.0209 
     33 CB         24.1445   -0.1669   -0.7597 C.3       2 UNK        -0.1931 
     34 N          25.7754   -1.9877   -0.9815 N.am      2 UNK        -0.4546 
     35 C          26.7604   -2.7471   -1.4808 C.2       1 UNK         0.5154 
     36 O          27.3048   -2.5185   -2.5599 O.2       1 UNK        -0.5181 
     37 C          27.5141    0.4826   -6.4190 C.2       5 UNK         0.5014 
     38 O          28.1802    0.8427   -7.3904 O.2       5 UNK        -0.5248 
     39 N          26.1912    0.6824   -6.2949 N.am      6 UNK        -0.4434 
     40 CA         25.3186    1.3950   -7.2346 C.3       6 UNK         0.0363 
     41 CB         25.0657    0.5279   -8.4884 C.3       6 UNK        -0.1936 
     42 C          25.8447    2.8130   -7.5441 C.2       6 UNK         0.5081 
     43 O          25.7240    3.6983   -6.6972 O.2       6 UNK        -0.5248 
     44 N          26.4455    2.9948   -8.7278 N.am      7 UNK        -0.4718 
     45 CA         27.0936    4.2319   -9.1776 C.3       7 UNK         0.0273 
     46 CB         27.0747    4.2568  -10.7167 C.3       7 UNK        -0.1935 
     47 C          28.5332    4.4140   -8.6481 C.2       7 UNK         0.5018 
     48 O          29.2011    5.3651   -9.0563 O.2       7 UNK        -0.5186 
     49 N          29.0156    3.4864   -7.8083 N.am      8 UNK        -0.4240 
     50 CA         30.3604    3.3545   -7.2293 C.3       8 UNK         0.0235 
     51 CB         30.8173    4.6169   -6.4734 C.3       8 UNK        -0.2000 
     52 C          31.3982    2.8764   -8.2512 C.2       8 UNK         0.4941 
     53 O          32.0699    1.8745   -8.0064 O.2       8 UNK        -0.5273 
     54 N          31.4521    3.5397   -9.4134 N.am      9 UNK        -0.4262 
     55 CA         32.2445    3.1386  -10.5815 C.3       9 UNK         0.0264 
     56 CB         32.1886    4.2602  -11.6314 C.3       9 UNK        -0.1955 
     57 C          31.7971    1.7977  -11.1992 C.2       9 UNK         0.5031 
     58 O          32.5746    1.1780  -11.9257 O.2       9 UNK        -0.5390 
     59 N          30.5612    1.3754  -10.8985 N.am      10 UNK        -0.4204 
     60 CA         29.9836    0.0918  -11.2921 C.3       10 UNK         0.0237 
     61 CB         28.4560    0.1674  -11.1319 C.3       10 UNK        -0.1985 
     62 C          30.5443   -1.1064  -10.5021 C.2       10 UNK         0.4970 
     63 O          30.4508   -2.2294  -11.0001 O.2       10 UNK        -0.4914 
     64 N          31.0913   -0.8709   -9.2998 N.am      11 UNK        -0.4285 
     65 CA         31.6646   -1.9158   -8.4406 C.3       11 UNK         0.1007 
     66 C          32.9956   -2.4836   -9.0069 C.2       11 UNK         0.5703 
     67 N          33.2330   -3.7802   -8.8607 N.am      11 UNK        -0.7361 
     68 O          33.8274   -1.7554   -9.5455 O.2       11 UNK        -0.4986 
     69 C69        31.8201   -1.4211   -6.9779 C.3       12 UNK        -0.0947 
     70 S70        31.6859   -2.7994   -5.7848 S.3       12 UNK        -0.2240 
     71 C71        32.8021   -2.2746   -4.4471 C.3       12 UNK         0.0194 
     72 H72        26.0905   -7.4035   -2.5922 H         1 UNK         0.0906 
     73 H73        24.4069   -7.3735   -2.0677 H         1 UNK         0.0906 
     74 H74        24.8818   -6.5548   -3.5585 H         1 UNK         0.0906 
     75 H75        27.4248   -5.8617   -1.6824 H         1 UNK         0.3140 
     76 H76        26.6395   -4.0074    0.2644 H         1 UNK         0.1085 
     77 H77        29.2327   -3.9787   -1.3780 H         1 UNK         0.0836 
     78 H78        28.9427   -5.0746   -0.0541 H         1 UNK         0.0836 
     79 H79        31.4607   -3.6240    0.1979 H         1 UNK         0.0731 
     80 H80        31.5121   -2.1110    1.0647 H         1 UNK         0.0731 
     81 H81        32.2098   -3.4239   -2.0469 H         1 UNK         0.1312 
     82 H82        31.7017    0.2126   -4.2607 H         1 UNK         0.1406 
     83 H83        30.1187   -0.1261   -0.2850 H         1 UNK         0.1631 
     84 H84        31.0930    2.3203   -2.3288 H         1 UNK         0.0717 
     85 H85        29.6305    1.8187   -1.5156 H         1 UNK         0.0717 
     86 H86        28.3251   -0.1278   -3.0904 H         1 UNK         0.0934 
     87 H87        27.1194    0.9268   -3.7514 H         1 UNK         0.0934 
     88 H88        29.2643   -0.3532   -5.5209 H         1 UNK         0.0739 
     89 H89        27.3935   -1.8938   -4.2076 H         1 UNK         0.3093 
     90 H90        26.7263   -4.3838   -6.6655 H         1 UNK         0.0818 
     91 H91        28.3060   -4.4044   -4.0342 H         1 UNK         0.0819 
     92 H92        27.4588   -5.7845   -4.7337 H         1 UNK         0.0819 
     93 H93        28.8305   -5.0720   -5.5678 H         1 UNK         0.0819 
     94 H94        25.9062   -3.6158   -3.9432 H         1 UNK         0.3041 
     95 H95        22.9652   -1.9945   -4.9712 H         1 UNK         0.0784 
     96 H96        22.1042   -4.3100   -5.1931 H         1 UNK         0.0793 
     97 H97        23.0341   -4.8251   -3.7950 H         1 UNK         0.0793 
     98 H98        21.7218   -3.6641   -3.6057 H         1 UNK         0.0793 
     99 H99        24.0125   -2.9678   -2.4360 H         1 UNK         0.3024 
    100 H100       26.0180   -0.0964   -1.7991 H         1 UNK         0.1171 
    101 H101       24.5688    0.1480    0.1939 H         1 UNK         0.0786 
    102 H102       23.7221    0.7209   -1.2328 H         1 UNK         0.0786 
    103 H103       23.3195   -0.8497   -0.5523 H         1 UNK         0.0786 
    104 H104       25.3433   -2.2615   -0.1104 H         1 UNK         0.2977 
    105 H105       25.7313    0.3472   -5.4496 H         1 UNK         0.3127 
    106 H106       24.3614    1.5275   -6.7279 H         1 UNK         0.0770 
    107 H107       25.9881    0.2584   -9.0025 H         1 UNK         0.0814 
    108 H108       24.4212    1.0425   -9.2023 H         1 UNK         0.0814 
    109 H109       24.5647   -0.4022   -8.2185 H         1 UNK         0.0814 
    110 H110       26.5224    2.1960   -9.3407 H         1 UNK         0.2983 
    111 H111       26.5135    5.0837   -8.8157 H         1 UNK         0.0947 
    112 H112       27.4782    5.1949  -11.1006 H         1 UNK         0.0806 
    113 H113       26.0593    4.1657  -11.1029 H         1 UNK         0.0806 
    114 H114       27.6703    3.4488  -11.1427 H         1 UNK         0.0806 
    115 H115       28.4183    2.6839   -7.6190 H         1 UNK         0.3000 
    116 H116       30.2763    2.5529   -6.4962 H         1 UNK         0.0850 
    117 H117       31.7607    4.4352   -5.9571 H         1 UNK         0.0810 
    118 H118       30.0871    4.9088   -5.7186 H         1 UNK         0.0810 
    119 H119       30.9729    5.4664   -7.1385 H         1 UNK         0.0810 
    120 H120       30.8439    4.3479   -9.5148 H         1 UNK         0.3040 
    121 H121       33.2804    3.0177  -10.2577 H         1 UNK         0.0766 
    122 H122       32.5791    5.1968  -11.2329 H         1 UNK         0.0812 
    123 H123       31.1693    4.4404  -11.9756 H         1 UNK         0.0812 
    124 H124       32.7890    4.0070  -12.5065 H         1 UNK         0.0812 
    125 H125       30.0018    1.9571  -10.2938 H         1 UNK         0.3205 
    126 H126       30.2101   -0.0763  -12.3473 H         1 UNK         0.0754 
    127 H127       27.9841   -0.7666  -11.4406 H         1 UNK         0.0769 
    128 H128       28.0288    0.9617  -11.7441 H         1 UNK         0.0769 
    129 H129       28.1719    0.3465  -10.0946 H         1 UNK         0.0769 
    130 H130       31.1937    0.0803   -8.9711 H         1 UNK         0.2981 
    131 H131       30.9323   -2.7267   -8.4397 H         1 UNK         0.0541 
    132 H132       32.5690   -4.3775   -8.3932 H         1 UNK         0.3459 
    133 H133       34.0966   -4.1647   -9.2099 H         1 UNK         0.3459 
    134 H134       32.7574   -0.8781   -6.8449 H         1 UNK         0.0612 
    135 H135       31.0339   -0.7073   -6.7387 H         1 UNK         0.0612 
    136 H136       33.5424   -1.5631   -4.8146 H         1 UNK         0.0624 
    137 H137       33.3665   -3.1463   -4.1130 H         1 UNK         0.0624 
@<TRIPOS>BOND
     1    1    2 1    
     2    1   72 1    
     3    1   73 1    
     4    1   74 1    
     5    2    3 2    
     6    2    4 am   BACKBONE|DICT|INTERRES
     7    4    5 1    
     8    4   75 1    
     9    5    6 1    
    10    5   35 1    
    11    5   76 1    
    12    6    7 1    
    13    6   77 1    
    14    6   78 1    
    15    7    8 1    
    16    8    9 1    
    17    8   79 1    
    18    8   80 1    
    19    9   10 ar   
    20    9   14 ar   
    21   10   11 ar   
    22   10   81 1    
    23   11   12 ar   
    24   11   71 1    
    25   12   13 ar   
    26   12   82 1    
    27   13   14 ar   
    28   13   15 1    
    29   14   83 1    
    30   15   16 1    
    31   15   84 1    
    32   15   85 1    
    33   16   17 1    
    34   17   18 1    
    35   17   86 1    
    36   17   87 1    
    37   18   19 1    
    38   18   37 1    
    39   18   88 1    
    40   19   20 am   BACKBONE|DICT|INTERRES
    41   19   89 1    
    42   20   21 2    
    43   20   22 1    
    44   22   23 1    
    45   22   24 1    
    46   22   90 1    
    47   23   91 1    
    48   23   92 1    
    49   23   93 1    
    50   24   25 am   BACKBONE|DICT|INTERRES
    51   24   94 1    
    52   25   26 2    
    53   25   27 1    
    54   27   28 1    
    55   27   29 1    
    56   27   95 1    
    57   28   96 1    
    58   28   97 1    
    59   28   98 1    
    60   29   30 am   BACKBONE|DICT|INTERRES
    61   29   99 1    
    62   30   31 2    
    63   30   32 1    
    64   32   33 1    
    65   32   34 1    
    66   32  100 1    
    67   33  101 1    
    68   33  102 1    
    69   33  103 1    
    70   34   35 am   BACKBONE|DICT|INTERRES
    71   34  104 1    
    72   35   36 2    
    73   37   38 2    
    74   37   39 am   BACKBONE|DICT|INTERRES
    75   39   40 1    
    76   39  105 1    
    77   40   41 1    
    78   40   42 1    
    79   40  106 1    
    80   41  107 1    
    81   41  108 1    
    82   41  109 1    
    83   42   43 2    
    84   42   44 am   BACKBONE|DICT|INTERRES
    85   44   45 1    
    86   44  110 1    
    87   45   46 1    
    88   45   47 1    
    89   45  111 1    
    90   46  112 1    
    91   46  113 1    
    92   46  114 1    
    93   47   48 2    
    94   47   49 am   BACKBONE|DICT|INTERRES
    95   49   50 1    
    96   49  115 1    
    97   50   51 1    
    98   50   52 1    
    99   50  116 1    
   100   51  117 1    
   101   51  118 1    
   102   51  119 1    
   103   52   53 2    
   104   52   54 am   BACKBONE|DICT|INTERRES
   105   54   55 1    
   106   54  120 1    
   107   55   56 1    
   108   55   57 1    
   109   55  121 1    
   110   56  122 1    
   111   56  123 1    
   112   56  124 1    
   113   57   58 2    
   114   57   59 am   BACKBONE|DICT|INTERRES
   115   59   60 1    
   116   59  125 1    
   117   60   61 1    
   118   60   62 1    
   119   60  126 1    
   120   61  127 1    
   121   61  128 1    
   122   61  129 1    
   123   62   63 2    
   124   62   64 am   BACKBONE|DICT|INTERRES
   125   64   65 1    
   126   64  130 1    
   127   65   66 1    
   128   65   69 1    
   129   65  131 1    
   130   66   67 am   BACKBONE|DICT|INTERRES
   131   66   68 2    
   132   67  132 1    
   133   67  133 1    
   134   69   70 1    
   135   69  134 1    
   136   69  135 1    
   137   70   71 1    
   138   71  136 1    
   139   71  137 1    
@<TRIPOS>SUBSTRUCTURE
     1 UNK         1 GROUP             0       ****    0 ROOT    
