@<TRIPOS>MOLECULE
3R137
137   139    1
SMALL
USER_CHARGES


@<TRIPOS>ATOM
      1 CA         29.5117    0.3290    2.7826 C.3       0 UNK        -0.2020 
      2 C          29.2158    0.4955    1.2996 C.2       0 UNK         0.4855 
      3 O          29.2999    1.6087    0.7809 O.2       0 UNK        -0.5197 
      4 N          28.8741   -0.6040    0.6148 N.am      1 UNK        -0.4892 
      5 CA         28.5510   -0.6416   -0.8183 C.3       1 UNK         0.0835 
      6 C6         28.4618   -2.0973   -1.3430 C.3       12 UNK        -0.0855 
      7 S7         30.0770   -2.9356   -1.2858 S.3       12 UNK        -0.2931 
      8 C8         29.7107   -4.4937   -2.1652 C.3       12 UNK         0.0378 
      9 C9         30.0484   -4.4815   -3.6570 C.ar      12 UNK        -0.0802 
     10 C10        31.2275   -3.8900   -4.1291 C.ar      12 UNK        -0.0944 
     11 C11        31.5902   -3.9953   -5.4752 C.ar      12 UNK        -0.0787 
     12 C12        30.7632   -4.6978   -6.3571 C.ar      12 UNK        -0.0862 
     13 C13        29.5880   -5.3045   -5.9028 C.ar      12 UNK        -0.0733 
     14 C14        29.2291   -5.1768   -4.5555 C.ar      12 UNK        -0.0832 
     15 C15        28.7772   -6.2005   -6.8360 C.3       12 UNK         0.0240 
     16 S16        28.1177   -5.3397   -8.3004 S.3       12 UNK        -0.2522 
     17 C17        26.6749   -4.4744   -7.5963 C.3       12 UNK        -0.0967 
     18 CA         26.4352   -3.0714   -8.2112 C.3       5 UNK         0.0660 
     19 N          25.1722   -2.5009   -7.7336 N.am      5 UNK        -0.4015 
     20 C          24.6480   -1.3235   -8.1059 C.2       4 UNK         0.4946 
     21 O          25.1334   -0.5903   -8.9658 O.2       4 UNK        -0.5353 
     22 CA         23.3834   -0.8631   -7.3609 C.3       4 UNK         0.0277 
     23 CB         22.1222   -1.3531   -8.0901 C.3       4 UNK        -0.1981 
     24 N          23.3356   -1.2842   -5.9558 N.am      4 UNK        -0.4209 
     25 C          24.2280   -0.9368   -5.0180 C.2       3 UNK         0.4942 
     26 O          25.2291   -0.2482   -5.2343 O.2       3 UNK        -0.5208 
     27 CA         23.9867   -1.5049   -3.6175 C.3       3 UNK         0.0250 
     28 CB         24.6531   -2.8858   -3.4713 C.3       3 UNK        -0.1990 
     29 N          24.5428   -0.5890   -2.6281 N.am      3 UNK        -0.4232 
     30 C          24.0935   -0.4212   -1.3794 C.2       2 UNK         0.4993 
     31 O          23.1232   -1.0253   -0.9174 O.2       2 UNK        -0.5286 
     32 CA         24.8967    0.5470   -0.4870 C.3       2 UNK         0.0209 
     33 CB         24.2277    0.7960    0.8782 C.3       2 UNK        -0.1931 
     34 N          26.2512    0.0350   -0.2638 N.am      2 UNK        -0.4546 
     35 C          27.2514    0.1165   -1.1516 C.2       1 UNK         0.5154 
     36 O          27.1605    0.7348   -2.2124 O.2       1 UNK        -0.5181 
     37 C          27.6147   -2.1149   -7.9492 C.2       5 UNK         0.5014 
     38 O          28.2954   -1.7058   -8.8909 O.2       5 UNK        -0.5248 
     39 N          27.7940   -1.7462   -6.6744 N.am      6 UNK        -0.4434 
     40 CA         28.8348   -0.8315   -6.2164 C.3       6 UNK         0.0363 
     41 CB         28.8609   -0.8180   -4.6858 C.3       6 UNK        -0.1936 
     42 C          28.6705    0.5890   -6.7666 C.2       6 UNK         0.5081 
     43 O          29.6756    1.2156   -7.0963 O.2       6 UNK        -0.5248 
     44 N          27.4211    1.0597   -6.8842 N.am      7 UNK        -0.4718 
     45 CA         27.0847    2.3515   -7.4851 C.3       7 UNK         0.0273 
     46 CB         25.5945    2.6549   -7.2665 C.3       7 UNK        -0.1935 
     47 C          27.4492    2.4236   -8.9782 C.2       7 UNK         0.5018 
     48 O          28.0364    3.4184   -9.4043 O.2       7 UNK        -0.5186 
     49 N          27.1206    1.3677   -9.7373 N.am      8 UNK        -0.4240 
     50 CA         27.4384    1.2420  -11.1615 C.3       8 UNK         0.0235 
     51 CB         26.6357    0.0824  -11.7732 C.3       8 UNK        -0.2000 
     52 C          28.9414    1.0566  -11.4229 C.2       8 UNK         0.4941 
     53 O          29.4799    1.6999  -12.3246 O.2       8 UNK        -0.5273 
     54 N          29.5913    0.1884  -10.6356 N.am      9 UNK        -0.4262 
     55 CA         31.0220   -0.1128  -10.7435 C.3       9 UNK         0.0264 
     56 CB         31.2934   -1.4718  -10.0808 C.3       9 UNK        -0.1955 
     57 C          31.9402    0.9759  -10.1546 C.2       9 UNK         0.5031 
     58 O          33.1360    0.9613  -10.4507 O.2       9 UNK        -0.5390 
     59 N          31.3795    1.8820   -9.3393 N.am      10 UNK        -0.4204 
     60 CA         32.0475    2.9460   -8.5796 C.3       10 UNK         0.0237 
     61 CB         32.6990    3.9853   -9.5175 C.3       10 UNK        -0.1985 
     62 C          33.0130    2.3808   -7.5190 C.2       10 UNK         0.4970 
     63 O          34.1474    2.8484   -7.3979 O.2       10 UNK        -0.4914 
     64 N          32.5395    1.3718   -6.7788 N.am      11 UNK        -0.4285 
     65 CA         33.2674    0.7145   -5.6841 C.3       11 UNK         0.1007 
     66 C          33.3494    1.6091   -4.4180 C.2       11 UNK         0.5703 
     67 N          34.4073    1.4696   -3.6302 N.am      11 UNK        -0.7361 
     68 O          32.4526    2.3974   -4.1229 O.2       11 UNK        -0.4986 
     69 C69        32.6620   -0.6722   -5.3440 C.3       12 UNK        -0.0947 
     70 S70        32.7250   -1.8100   -6.7664 S.3       12 UNK        -0.2240 
     71 C71        32.9167   -3.4289   -5.9637 C.3       12 UNK         0.0194 
     72 H72        28.8285    0.9399    3.3722 H         1 UNK         0.0906 
     73 H73        30.5300    0.6503    3.0001 H         1 UNK         0.0906 
     74 H74        29.4068   -0.7061    3.1069 H         1 UNK         0.0906 
     75 H75        28.8583   -1.4971    1.0873 H         1 UNK         0.3140 
     76 H76        29.3541   -0.1305   -1.3549 H         1 UNK         0.1085 
     77 H77        28.0940   -2.1312   -2.3682 H         1 UNK         0.0836 
     78 H78        27.7463   -2.6747   -0.7541 H         1 UNK         0.0836 
     79 H79        30.2954   -5.2881   -1.6998 H         1 UNK         0.0731 
     80 H80        28.6639   -4.7578   -2.0068 H         1 UNK         0.0731 
     81 H81        31.8861   -3.3784   -3.4410 H         1 UNK         0.1312 
     82 H82        31.0559   -4.8084   -7.3925 H         1 UNK         0.1406 
     83 H83        28.3392   -5.6728   -4.1918 H         1 UNK         0.1631 
     84 H84        29.4244   -7.0087   -7.1793 H         1 UNK         0.0717 
     85 H85        27.9549   -6.6819   -6.3042 H         1 UNK         0.0717 
     86 H86        25.8038   -5.1078   -7.7717 H         1 UNK         0.0934 
     87 H87        26.7817   -4.4084   -6.5119 H         1 UNK         0.0934 
     88 H88        26.3423   -3.1839   -9.2936 H         1 UNK         0.0739 
     89 H89        24.6798   -3.0277   -7.0284 H         1 UNK         0.3093 
     90 H90        23.3776    0.2282   -7.3729 H         1 UNK         0.0818 
     91 H91        21.2176   -0.9500   -7.6344 H         1 UNK         0.0819 
     92 H92        22.1263   -1.0323   -9.1330 H         1 UNK         0.0819 
     93 H93        22.0463   -2.4412   -8.0846 H         1 UNK         0.0819 
     94 H94        22.5498   -1.8594   -5.6860 H         1 UNK         0.3041 
     95 H95        22.9096   -1.5982   -3.4615 H         1 UNK         0.0784 
     96 H96        24.2582   -3.5948   -4.1997 H         1 UNK         0.0793 
     97 H97        25.7327   -2.8298   -3.6175 H         1 UNK         0.0793 
     98 H98        24.4737   -3.3082   -2.4824 H         1 UNK         0.0793 
     99 H99        25.3399   -0.0433   -2.9459 H         1 UNK         0.3024 
    100 H100       24.9534    1.5044   -1.0108 H         1 UNK         0.1171 
    101 H101       24.7893    1.5210    1.4677 H         1 UNK         0.0786 
    102 H102       23.2200    1.1943    0.7519 H         1 UNK         0.0786 
    103 H103       24.1456   -0.1207    1.4637 H         1 UNK         0.0786 
    104 H104       26.4032   -0.5005    0.5788 H         1 UNK         0.2977 
    105 H105       27.1498   -2.0816   -5.9751 H         1 UNK         0.3127 
    106 H106       29.7927   -1.2121   -6.5755 H         1 UNK         0.0770 
    107 H107       27.8624   -0.6680   -4.2770 H         1 UNK         0.0814 
    108 H108       29.4919   -0.0174   -4.2977 H         1 UNK         0.0814 
    109 H109       29.2548   -1.7575   -4.3021 H         1 UNK         0.0814 
    110 H110       26.6533    0.4972   -6.5307 H         1 UNK         0.2983 
    111 H111       27.6664    3.1161   -6.9655 H         1 UNK         0.0947 
    112 H112       25.3433    3.6512   -7.6324 H         1 UNK         0.0806 
    113 H113       25.3320    2.6200   -6.2088 H         1 UNK         0.0806 
    114 H114       24.9573    1.9455   -7.7936 H         1 UNK         0.0806 
    115 H115       26.5958    0.6024   -9.3187 H         1 UNK         0.3000 
    116 H116       27.1282    2.1648  -11.6565 H         1 UNK         0.0850 
    117 H117       25.5629    0.2502  -11.6758 H         1 UNK         0.0810 
    118 H118       26.8682   -0.8679  -11.2904 H         1 UNK         0.0810 
    119 H119       26.8525   -0.0272  -12.8366 H         1 UNK         0.0810 
    120 H120       29.0640   -0.3477   -9.9473 H         1 UNK         0.3040 
    121 H121       31.2747   -0.2021  -11.8022 H         1 UNK         0.0766 
    122 H122       30.9842   -1.4704   -9.0360 H         1 UNK         0.0812 
    123 H123       32.3540   -1.7252  -10.1105 H         1 UNK         0.0812 
    124 H124       30.7522   -2.2732  -10.5838 H         1 UNK         0.0812 
    125 H125       30.4032    1.7473   -9.1045 H         1 UNK         0.3205 
    126 H126       31.2586    3.4576   -8.0259 H         1 UNK         0.0754 
    127 H127       33.5406    3.5662  -10.0696 H         1 UNK         0.0769 
    128 H128       33.0758    4.8377   -8.9511 H         1 UNK         0.0769 
    129 H129       31.9803    4.3694  -10.2414 H         1 UNK         0.0769 
    130 H130       31.5658    1.1080   -6.8992 H         1 UNK         0.2981 
    131 H131       34.2900    0.5515   -6.0310 H         1 UNK         0.0541 
    132 H132       35.1447    0.8201   -3.8555 H         1 UNK         0.3459 
    133 H133       34.4731    2.0317   -2.7961 H         1 UNK         0.3459 
    134 H134       31.6282   -0.5755   -5.0180 H         1 UNK         0.0612 
    135 H135       33.2034   -1.1253   -4.5118 H         1 UNK         0.0612 
    136 H136       33.6349   -3.3576   -5.1456 H         1 UNK         0.0624 
    137 H137       33.3562   -4.1183   -6.6860 H         1 UNK         0.0624 
@<TRIPOS>BOND
     1    1    2 1    
     2    1   72 1    
     3    1   73 1    
     4    1   74 1    
     5    2    3 2    
     6    2    4 am   BACKBONE|DICT|INTERRES
     7    4    5 1    
     8    4   75 1    
     9    5    6 1    
    10    5   35 1    
    11    5   76 1    
    12    6    7 1    
    13    6   77 1    
    14    6   78 1    
    15    7    8 1    
    16    8    9 1    
    17    8   79 1    
    18    8   80 1    
    19    9   10 ar   
    20    9   14 ar   
    21   10   11 ar   
    22   10   81 1    
    23   11   12 ar   
    24   11   71 1    
    25   12   13 ar   
    26   12   82 1    
    27   13   14 ar   
    28   13   15 1    
    29   14   83 1    
    30   15   16 1    
    31   15   84 1    
    32   15   85 1    
    33   16   17 1    
    34   17   18 1    
    35   17   86 1    
    36   17   87 1    
    37   18   19 1    
    38   18   37 1    
    39   18   88 1    
    40   19   20 am   BACKBONE|DICT|INTERRES
    41   19   89 1    
    42   20   21 2    
    43   20   22 1    
    44   22   23 1    
    45   22   24 1    
    46   22   90 1    
    47   23   91 1    
    48   23   92 1    
    49   23   93 1    
    50   24   25 am   BACKBONE|DICT|INTERRES
    51   24   94 1    
    52   25   26 2    
    53   25   27 1    
    54   27   28 1    
    55   27   29 1    
    56   27   95 1    
    57   28   96 1    
    58   28   97 1    
    59   28   98 1    
    60   29   30 am   BACKBONE|DICT|INTERRES
    61   29   99 1    
    62   30   31 2    
    63   30   32 1    
    64   32   33 1    
    65   32   34 1    
    66   32  100 1    
    67   33  101 1    
    68   33  102 1    
    69   33  103 1    
    70   34   35 am   BACKBONE|DICT|INTERRES
    71   34  104 1    
    72   35   36 2    
    73   37   38 2    
    74   37   39 am   BACKBONE|DICT|INTERRES
    75   39   40 1    
    76   39  105 1    
    77   40   41 1    
    78   40   42 1    
    79   40  106 1    
    80   41  107 1    
    81   41  108 1    
    82   41  109 1    
    83   42   43 2    
    84   42   44 am   BACKBONE|DICT|INTERRES
    85   44   45 1    
    86   44  110 1    
    87   45   46 1    
    88   45   47 1    
    89   45  111 1    
    90   46  112 1    
    91   46  113 1    
    92   46  114 1    
    93   47   48 2    
    94   47   49 am   BACKBONE|DICT|INTERRES
    95   49   50 1    
    96   49  115 1    
    97   50   51 1    
    98   50   52 1    
    99   50  116 1    
   100   51  117 1    
   101   51  118 1    
   102   51  119 1    
   103   52   53 2    
   104   52   54 am   BACKBONE|DICT|INTERRES
   105   54   55 1    
   106   54  120 1    
   107   55   56 1    
   108   55   57 1    
   109   55  121 1    
   110   56  122 1    
   111   56  123 1    
   112   56  124 1    
   113   57   58 2    
   114   57   59 am   BACKBONE|DICT|INTERRES
   115   59   60 1    
   116   59  125 1    
   117   60   61 1    
   118   60   62 1    
   119   60  126 1    
   120   61  127 1    
   121   61  128 1    
   122   61  129 1    
   123   62   63 2    
   124   62   64 am   BACKBONE|DICT|INTERRES
   125   64   65 1    
   126   64  130 1    
   127   65   66 1    
   128   65   69 1    
   129   65  131 1    
   130   66   67 am   BACKBONE|DICT|INTERRES
   131   66   68 2    
   132   67  132 1    
   133   67  133 1    
   134   69   70 1    
   135   69  134 1    
   136   69  135 1    
   137   70   71 1    
   138   71  136 1    
   139   71  137 1    
@<TRIPOS>SUBSTRUCTURE
     1 UNK         1 GROUP             0       ****    0 ROOT    
