@<TRIPOS>MOLECULE
3R137
137   139    1
SMALL
USER_CHARGES


@<TRIPOS>ATOM
      1 CA         23.2869   -5.3355   -3.3223 C.3       0 UNK        -0.2020 
      2 C          23.9768   -4.4965   -2.2579 C.2       0 UNK         0.4855 
      3 O          23.3591   -3.5933   -1.6930 O.2       0 UNK        -0.5197 
      4 N          25.2579   -4.7798   -1.9919 N.am      1 UNK        -0.4892 
      5 CA         26.1332   -4.0708   -1.0511 C.3       1 UNK         0.0835 
      6 C6         27.5223   -4.7560   -0.9053 C.3       12 UNK        -0.0855 
      7 S7         28.2184   -5.4436   -2.4547 S.3       12 UNK        -0.2931 
      8 C8         29.9960   -5.1007   -2.2766 C.3       12 UNK         0.0378 
      9 C9         30.3981   -3.7994   -2.9553 C.ar      12 UNK        -0.0802 
     10 C10        30.6735   -3.7866   -4.3264 C.ar      12 UNK        -0.0944 
     11 C11        31.0976   -2.6129   -4.9560 C.ar      12 UNK        -0.0787 
     12 C12        31.2511   -1.4483   -4.1988 C.ar      12 UNK        -0.0862 
     13 C13        30.9575   -1.4386   -2.8312 C.ar      12 UNK        -0.0733 
     14 C14        30.5310   -2.6205   -2.2152 C.ar      12 UNK        -0.0832 
     15 C15        31.1148   -0.1623   -2.0085 C.3       12 UNK         0.0240 
     16 S16        30.3391    1.3039   -2.7737 S.3       12 UNK        -0.2522 
     17 C17        28.6292    0.7270   -3.0294 C.3       12 UNK        -0.0967 
     18 CA         28.3257    0.4616   -4.5283 C.3       5 UNK         0.0660 
     19 N          27.4143   -0.6699   -4.7089 N.am      5 UNK        -0.4015 
     20 C          27.0531   -1.1997   -5.8859 C.2       4 UNK         0.4946 
     21 O          27.4995   -0.8375   -6.9725 O.2       4 UNK        -0.5353 
     22 CA         25.9543   -2.2727   -5.8500 C.3       4 UNK         0.0277 
     23 CB         26.5419   -3.6574   -5.5352 C.3       4 UNK        -0.1981 
     24 N          24.9052   -1.9322   -4.8856 N.am      4 UNK        -0.4209 
     25 C          24.0424   -0.9168   -5.0464 C.2       3 UNK         0.4942 
     26 O          23.9884   -0.2204   -6.0589 O.2       3 UNK        -0.5208 
     27 CA         23.1239   -0.5830   -3.8600 C.3       3 UNK         0.0250 
     28 CB         21.8476   -1.4376   -3.8938 C.3       3 UNK        -0.1990 
     29 N          23.8046   -0.7371   -2.5714 N.am      3 UNK        -0.4232 
     30 C          24.7810    0.0818   -2.1488 C.2       2 UNK         0.4993 
     31 O          25.1640    1.0650   -2.7822 O.2       2 UNK        -0.5286 
     32 CA         25.4891   -0.2746   -0.8293 C.3       2 UNK         0.0209 
     33 CB         24.7727    0.3842    0.3597 C.3       2 UNK        -0.1931 
     34 N          25.6047   -1.7171   -0.5938 N.am      2 UNK        -0.4546 
     35 C          26.2409   -2.5741   -1.4048 C.2       1 UNK         0.5154 
     36 O          26.8325   -2.2247   -2.4260 O.2       1 UNK        -0.5181 
     37 C          27.8363    1.7359   -5.2443 C.2       5 UNK         0.5014 
     38 O          28.6346    2.4083   -5.8946 O.2       5 UNK        -0.5248 
     39 N          26.5346    2.0354   -5.1330 N.am      6 UNK        -0.4434 
     40 CA         25.8836    3.1395   -5.8375 C.3       6 UNK         0.0363 
     41 CB         24.4777    3.3626   -5.2572 C.3       6 UNK        -0.1936 
     42 C          25.8180    2.9195   -7.3593 C.2       6 UNK         0.5081 
     43 O          26.0913    3.8528   -8.1147 O.2       6 UNK        -0.5248 
     44 N          25.4437    1.7042   -7.7826 N.am      7 UNK        -0.4718 
     45 CA         25.2631    1.3422   -9.1902 C.3       7 UNK         0.0273 
     46 CB         24.4576    0.0365   -9.2842 C.3       7 UNK        -0.1935 
     47 C          26.5774    1.2130   -9.9772 C.2       7 UNK         0.5018 
     48 O          26.6268    1.6463  -11.1294 O.2       7 UNK        -0.5186 
     49 N          27.5994    0.6014   -9.3670 N.am      8 UNK        -0.4240 
     50 CA         28.8572    0.2311  -10.0125 C.3       8 UNK         0.0235 
     51 CB         28.8505   -1.2851  -10.2905 C.3       8 UNK        -0.2000 
     52 C          30.0515    0.6697   -9.1557 C.2       8 UNK         0.4941 
     53 O          30.9159   -0.1467   -8.8393 O.2       8 UNK        -0.5273 
     54 N          30.1151    1.9693   -8.8331 N.am      9 UNK        -0.4262 
     55 CA         31.1842    2.6000   -8.0412 C.3       9 UNK         0.0264 
     56 CB         30.8706    4.0972   -7.8807 C.3       9 UNK        -0.1955 
     57 C          32.6092    2.4201   -8.6063 C.2       9 UNK         0.5031 
     58 O          33.5785    2.5144   -7.8525 O.2       9 UNK        -0.5390 
     59 N          32.7102    2.1550   -9.9148 N.am      10 UNK        -0.4204 
     60 CA         33.9471    1.8874  -10.6471 C.3       10 UNK         0.0237 
     61 CB         33.6979    2.1750  -12.1390 C.3       10 UNK        -0.1985 
     62 C          34.5169    0.4658  -10.4487 C.2       10 UNK         0.4970 
     63 O          35.5306    0.1594  -11.0784 O.2       10 UNK        -0.4914 
     64 N          33.8839   -0.3838   -9.6217 N.am      11 UNK        -0.4285 
     65 CA         34.3180   -1.7693   -9.3566 C.3       11 UNK         0.1007 
     66 C          35.7438   -1.9427   -8.7458 C.2       11 UNK         0.5703 
     67 N          36.3351   -0.9208   -8.1370 N.am      11 UNK        -0.7361 
     68 O          36.3230   -3.0229   -8.8370 O.2       11 UNK        -0.4986 
     69 C69        33.2477   -2.5771   -8.5705 C.3       12 UNK        -0.0947 
     70 S70        33.0924   -2.1067   -6.8115 S.3       12 UNK        -0.2240 
     71 C71        31.3774   -2.5992   -6.4529 C.3       12 UNK         0.0194 
     72 H72        23.1006   -4.7364   -4.2130 H         1 UNK         0.0906 
     73 H73        23.8876   -6.1975   -3.6124 H         1 UNK         0.0906 
     74 H74        22.3303   -5.7012   -2.9502 H         1 UNK         0.0906 
     75 H75        25.7266   -5.5077   -2.5146 H         1 UNK         0.3140 
     76 H76        25.6488   -4.1345   -0.0743 H         1 UNK         0.1085 
     77 H77        27.4296   -5.5920   -0.2102 H         1 UNK         0.0836 
     78 H78        28.2415   -4.0787   -0.4408 H         1 UNK         0.0836 
     79 H79        30.5519   -5.9252   -2.7255 H         1 UNK         0.0731 
     80 H80        30.2772   -5.0941   -1.2224 H         1 UNK         0.0731 
     81 H81        30.5605   -4.6958   -4.9009 H         1 UNK         0.1312 
     82 H82        31.5882   -0.5414   -4.6822 H         1 UNK         0.1406 
     83 H83        30.3133   -2.6279   -1.1560 H         1 UNK         0.1631 
     84 H84        32.1781    0.0362   -1.8689 H         1 UNK         0.0717 
     85 H85        30.6919   -0.2924   -1.0111 H         1 UNK         0.0717 
     86 H86        28.4907   -0.1816   -2.4431 H         1 UNK         0.0934 
     87 H87        27.9391    1.4536   -2.5957 H         1 UNK         0.0934 
     88 H88        29.2463    0.1656   -5.0325 H         1 UNK         0.0739 
     89 H89        27.0637   -1.1104   -3.8609 H         1 UNK         0.3093 
     90 H90        25.4994   -2.3178   -6.8418 H         1 UNK         0.0818 
     91 H91        27.0481   -3.6760   -4.5706 H         1 UNK         0.0819 
     92 H92        25.7700   -4.4267   -5.5256 H         1 UNK         0.0819 
     93 H93        27.2779   -3.9442   -6.2874 H         1 UNK         0.0819 
     94 H94        24.9326   -2.4084   -3.9958 H         1 UNK         0.3041 
     95 H95        22.8267    0.4635   -3.9594 H         1 UNK         0.0784 
     96 H96        21.3026   -1.2830   -4.8261 H         1 UNK         0.0793 
     97 H97        22.0661   -2.5022   -3.8193 H         1 UNK         0.0793 
     98 H98        21.1738   -1.1762   -3.0778 H         1 UNK         0.0793 
     99 H99        23.5713   -1.5576   -2.0201 H         1 UNK         0.3024 
    100 H100       26.5008    0.1320   -0.8850 H         1 UNK         0.1171 
    101 H101       25.3163    0.2221    1.2908 H         1 UNK         0.0786 
    102 H102       24.6930    1.4631    0.2174 H         1 UNK         0.0786 
    103 H103       23.7612   -0.0032    0.4880 H         1 UNK         0.0786 
    104 H104       25.1022   -2.0840    0.2021 H         1 UNK         0.2977 
    105 H105       25.9576    1.4887   -4.4988 H         1 UNK         0.3127 
    106 H106       26.4703    4.0431   -5.6580 H         1 UNK         0.0770 
    107 H107       23.8431    2.4850   -5.3851 H         1 UNK         0.0814 
    108 H108       23.9809    4.1998   -5.7491 H         1 UNK         0.0814 
    109 H109       24.5206    3.5901   -4.1919 H         1 UNK         0.0814 
    110 H110       25.1867    1.0016   -7.0950 H         1 UNK         0.2983 
    111 H111       24.6763    2.1316   -9.6654 H         1 UNK         0.0947 
    112 H112       24.2930   -0.2492  -10.3241 H         1 UNK         0.0806 
    113 H113       23.4777    0.1409   -8.8180 H         1 UNK         0.0806 
    114 H114       24.9738   -0.7904   -8.7950 H         1 UNK         0.0806 
    115 H115       27.4809    0.2562   -8.4135 H         1 UNK         0.3000 
    116 H116       28.9633    0.7467  -10.9691 H         1 UNK         0.0850 
    117 H117       29.7671   -1.5970  -10.7929 H         1 UNK         0.0810 
    118 H118       28.0164   -1.5669  -10.9331 H         1 UNK         0.0810 
    119 H119       28.7712   -1.8597   -9.3665 H         1 UNK         0.0810 
    120 H120       29.3477    2.5656   -9.1088 H         1 UNK         0.3040 
    121 H121       31.1695    2.1353   -7.0530 H         1 UNK         0.0766 
    122 H122       29.9032    4.2534   -7.4032 H         1 UNK         0.0812 
    123 H123       30.8579    4.6126   -8.8418 H         1 UNK         0.0812 
    124 H124       31.6188    4.5878   -7.2564 H         1 UNK         0.0812 
    125 H125       31.8523    2.0870  -10.4421 H         1 UNK         0.3205 
    126 H126       34.7098    2.5837  -10.2923 H         1 UNK         0.0754 
    127 H127       34.6134    2.0622  -12.7216 H         1 UNK         0.0769 
    128 H128       33.3467    3.1956  -12.2938 H         1 UNK         0.0769 
    129 H129       32.9568    1.4958  -12.5625 H         1 UNK         0.0769 
    130 H130       33.0303   -0.0928   -9.1587 H         1 UNK         0.2981 
    131 H131       34.3807   -2.2362  -10.3414 H         1 UNK         0.0541 
    132 H132       35.8578   -0.0378   -8.0498 H         1 UNK         0.3459 
    133 H133       37.2573   -1.0405   -7.7496 H         1 UNK         0.3459 
    134 H134       32.2763   -2.4714   -9.0558 H         1 UNK         0.0612 
    135 H135       33.4812   -3.6424   -8.6105 H         1 UNK         0.0612 
    136 H136       31.1928   -3.5828   -6.8872 H         1 UNK         0.0624 
    137 H137       30.6865   -1.9090   -6.9376 H         1 UNK         0.0624 
@<TRIPOS>BOND
     1    1    2 1    
     2    1   72 1    
     3    1   73 1    
     4    1   74 1    
     5    2    3 2    
     6    2    4 am   BACKBONE|DICT|INTERRES
     7    4    5 1    
     8    4   75 1    
     9    5    6 1    
    10    5   35 1    
    11    5   76 1    
    12    6    7 1    
    13    6   77 1    
    14    6   78 1    
    15    7    8 1    
    16    8    9 1    
    17    8   79 1    
    18    8   80 1    
    19    9   10 ar   
    20    9   14 ar   
    21   10   11 ar   
    22   10   81 1    
    23   11   12 ar   
    24   11   71 1    
    25   12   13 ar   
    26   12   82 1    
    27   13   14 ar   
    28   13   15 1    
    29   14   83 1    
    30   15   16 1    
    31   15   84 1    
    32   15   85 1    
    33   16   17 1    
    34   17   18 1    
    35   17   86 1    
    36   17   87 1    
    37   18   19 1    
    38   18   37 1    
    39   18   88 1    
    40   19   20 am   BACKBONE|DICT|INTERRES
    41   19   89 1    
    42   20   21 2    
    43   20   22 1    
    44   22   23 1    
    45   22   24 1    
    46   22   90 1    
    47   23   91 1    
    48   23   92 1    
    49   23   93 1    
    50   24   25 am   BACKBONE|DICT|INTERRES
    51   24   94 1    
    52   25   26 2    
    53   25   27 1    
    54   27   28 1    
    55   27   29 1    
    56   27   95 1    
    57   28   96 1    
    58   28   97 1    
    59   28   98 1    
    60   29   30 am   BACKBONE|DICT|INTERRES
    61   29   99 1    
    62   30   31 2    
    63   30   32 1    
    64   32   33 1    
    65   32   34 1    
    66   32  100 1    
    67   33  101 1    
    68   33  102 1    
    69   33  103 1    
    70   34   35 am   BACKBONE|DICT|INTERRES
    71   34  104 1    
    72   35   36 2    
    73   37   38 2    
    74   37   39 am   BACKBONE|DICT|INTERRES
    75   39   40 1    
    76   39  105 1    
    77   40   41 1    
    78   40   42 1    
    79   40  106 1    
    80   41  107 1    
    81   41  108 1    
    82   41  109 1    
    83   42   43 2    
    84   42   44 am   BACKBONE|DICT|INTERRES
    85   44   45 1    
    86   44  110 1    
    87   45   46 1    
    88   45   47 1    
    89   45  111 1    
    90   46  112 1    
    91   46  113 1    
    92   46  114 1    
    93   47   48 2    
    94   47   49 am   BACKBONE|DICT|INTERRES
    95   49   50 1    
    96   49  115 1    
    97   50   51 1    
    98   50   52 1    
    99   50  116 1    
   100   51  117 1    
   101   51  118 1    
   102   51  119 1    
   103   52   53 2    
   104   52   54 am   BACKBONE|DICT|INTERRES
   105   54   55 1    
   106   54  120 1    
   107   55   56 1    
   108   55   57 1    
   109   55  121 1    
   110   56  122 1    
   111   56  123 1    
   112   56  124 1    
   113   57   58 2    
   114   57   59 am   BACKBONE|DICT|INTERRES
   115   59   60 1    
   116   59  125 1    
   117   60   61 1    
   118   60   62 1    
   119   60  126 1    
   120   61  127 1    
   121   61  128 1    
   122   61  129 1    
   123   62   63 2    
   124   62   64 am   BACKBONE|DICT|INTERRES
   125   64   65 1    
   126   64  130 1    
   127   65   66 1    
   128   65   69 1    
   129   65  131 1    
   130   66   67 am   BACKBONE|DICT|INTERRES
   131   66   68 2    
   132   67  132 1    
   133   67  133 1    
   134   69   70 1    
   135   69  134 1    
   136   69  135 1    
   137   70   71 1    
   138   71  136 1    
   139   71  137 1    
@<TRIPOS>SUBSTRUCTURE
     1 UNK         1 GROUP             0       ****    0 ROOT    
