@<TRIPOS>MOLECULE
3R137
137   139    1
SMALL
USER_CHARGES


@<TRIPOS>ATOM
      1 CA         25.7558   -5.4909    1.7189 C.3       0 UNK        -0.2020 
      2 C          27.0597   -5.0591    1.0536 C.2       0 UNK         0.4855 
      3 O          27.9755   -5.8702    0.9361 O.2       0 UNK        -0.5197 
      4 N          27.2025   -3.8034    0.6062 N.am      1 UNK        -0.4892 
      5 CA         26.1964   -2.7312    0.6198 C.3       1 UNK         0.0835 
      6 C6         26.8611   -1.3330    0.4852 C.3       12 UNK        -0.0855 
      7 S7         27.7451   -1.0613   -1.0963 S.3       12 UNK        -0.2931 
      8 C8         29.4767   -1.2764   -0.5842 C.3       12 UNK         0.0378 
      9 C9         30.4011   -1.4629   -1.7793 C.ar      12 UNK        -0.0802 
     10 C10        31.4117   -0.5343   -2.0469 C.ar      12 UNK        -0.0944 
     11 C11        32.3133   -0.7451   -3.0958 C.ar      12 UNK        -0.0787 
     12 C12        32.1887   -1.8924   -3.8861 C.ar      12 UNK        -0.0862 
     13 C13        31.1591   -2.8091   -3.6537 C.ar      12 UNK        -0.0733 
     14 C14        30.2751   -2.5934   -2.5926 C.ar      12 UNK        -0.0832 
     15 C15        31.0234   -4.0507   -4.5253 C.3       12 UNK         0.0240 
     16 S16        30.4197   -3.6687   -6.2015 S.3       12 UNK        -0.2522 
     17 C17        28.7059   -3.1207   -5.8844 C.3       12 UNK        -0.0967 
     18 CA         28.2518   -2.0219   -6.8767 C.3       5 UNK         0.0660 
     19 N          26.8034   -1.8249   -6.8692 N.am      5 UNK        -0.4015 
     20 C          26.1345   -1.1579   -7.8228 C.2       4 UNK         0.4946 
     21 O          26.6598   -0.7370   -8.8537 O.2       4 UNK        -0.5353 
     22 CA         24.6364   -0.8818   -7.5921 C.3       4 UNK         0.0277 
     23 CB         23.7817   -1.9501   -8.2914 C.3       4 UNK        -0.1981 
     24 N          24.2572   -0.8006   -6.1787 N.am      4 UNK        -0.4209 
     25 C          24.7337    0.1035   -5.3109 C.2       3 UNK         0.4942 
     26 O          25.4954    1.0154   -5.6268 O.2       3 UNK        -0.5208 
     27 CA         24.3483   -0.0615   -3.8318 C.3       3 UNK         0.0250 
     28 CB         23.1118    0.7903   -3.5049 C.3       3 UNK        -0.1990 
     29 N          24.1231   -1.4415   -3.3807 N.am      3 UNK        -0.4232 
     30 C          24.9677   -2.4713   -3.5374 C.2       2 UNK         0.4993 
     31 O          25.9949   -2.4272   -4.2172 O.2       2 UNK        -0.5286 
     32 CA         24.6456   -3.7470   -2.7447 C.3       2 UNK         0.0209 
     33 CB         25.0275   -5.0181   -3.5244 C.3       2 UNK        -0.1931 
     34 N          25.4035   -3.7033   -1.4972 N.am      2 UNK        -0.4546 
     35 C          25.0986   -2.9244   -0.4493 C.2       1 UNK         0.5154 
     36 O          24.0169   -2.3489   -0.3214 O.2       1 UNK        -0.5181 
     37 C          28.9703   -0.6801   -6.6416 C.2       5 UNK         0.5014 
     38 O          29.7988   -0.2844   -7.4604 O.2       5 UNK        -0.5248 
     39 N          28.6129    0.0073   -5.5486 N.am      6 UNK        -0.4434 
     40 CA         29.2031    1.2850   -5.1498 C.3       6 UNK         0.0363 
     41 CB         28.7155    1.6576   -3.7413 C.3       6 UNK        -0.1936 
     42 C          28.9223    2.4266   -6.1414 C.2       6 UNK         0.5081 
     43 O          29.8332    3.1962   -6.4465 O.2       6 UNK        -0.5248 
     44 N          27.6710    2.5242   -6.6088 N.am      7 UNK        -0.4718 
     45 CA         27.2092    3.5527   -7.5365 C.3       7 UNK         0.0273 
     46 CB         25.7194    3.8532   -7.2777 C.3       7 UNK        -0.1935 
     47 C          27.4945    3.1554   -8.9925 C.2       7 UNK         0.5018 
     48 O          28.5157    3.5703   -9.5394 O.2       7 UNK        -0.5186 
     49 N          26.5752    2.3934   -9.6031 N.am      8 UNK        -0.4240 
     50 CA         26.5261    2.1005  -11.0401 C.3       8 UNK         0.0235 
     51 CB         25.2656    1.2797  -11.3611 C.3       8 UNK        -0.2000 
     52 C          27.7838    1.4209  -11.6055 C.2       8 UNK         0.4941 
     53 O          28.2573    1.8299  -12.6667 O.2       8 UNK        -0.5273 
     54 N          28.3135    0.4193  -10.8912 N.am      9 UNK        -0.4262 
     55 CA         29.5437   -0.2836  -11.2709 C.3       9 UNK         0.0264 
     56 CB         29.5119   -1.7161  -10.7156 C.3       9 UNK        -0.1955 
     57 C          30.8279    0.4416  -10.8248 C.2       9 UNK         0.5031 
     58 O          31.9125   -0.0138  -11.1915 O.2       9 UNK        -0.5390 
     59 N          30.7051    1.5233  -10.0376 N.am      10 UNK        -0.4204 
     60 CA         31.7858    2.3532   -9.4853 C.3       10 UNK         0.0237 
     61 CB         32.3989    3.2299  -10.5975 C.3       10 UNK        -0.1985 
     62 C          32.8460    1.5482   -8.7030 C.2       10 UNK         0.4970 
     63 O          34.0430    1.8060   -8.8454 O.2       10 UNK        -0.4914 
     64 N          32.3794    0.5676   -7.9209 N.am      11 UNK        -0.4285 
     65 CA         33.1621   -0.4333   -7.1813 C.3       11 UNK         0.1007 
     66 C          33.8844   -1.4878   -8.0745 C.2       11 UNK         0.5703 
     67 N          33.6455   -1.5518   -9.3797 N.am      11 UNK        -0.7361 
     68 O          34.6578   -2.2973   -7.5679 O.2       11 UNK        -0.4986 
     69 C69        34.1023    0.1780   -6.1011 C.3       12 UNK        -0.0947 
     70 S70        33.2265    1.2054   -4.8702 S.3       12 UNK        -0.2240 
     71 C71        33.4458    0.2455   -3.3364 C.3       12 UNK         0.0194 
     72 H72        24.9260   -5.4600    1.0139 H         1 UNK         0.0906 
     73 H73        25.8375   -6.5142    2.0851 H         1 UNK         0.0906 
     74 H74        25.5207   -4.8566    2.5727 H         1 UNK         0.0906 
     75 H75        28.0799   -3.5502    0.1766 H         1 UNK         0.3140 
     76 H76        25.6910   -2.7482    1.5872 H         1 UNK         0.1085 
     77 H77        26.1059   -0.5504    0.5834 H         1 UNK         0.0836 
     78 H78        27.5483   -1.1699    1.3171 H         1 UNK         0.0836 
     79 H79        29.7777   -0.4135    0.0121 H         1 UNK         0.0731 
     80 H80        29.5675   -2.1467    0.0664 H         1 UNK         0.0731 
     81 H81        31.5130    0.3416   -1.4207 H         1 UNK         0.1312 
     82 H82        32.8936   -2.0770   -4.6835 H         1 UNK         0.1406 
     83 H83        29.4896   -3.3090   -2.3917 H         1 UNK         0.1631 
     84 H84        30.3571   -4.7813   -4.0640 H         1 UNK         0.0717 
     85 H85        31.9968   -4.5365   -4.6071 H         1 UNK         0.0717 
     86 H86        28.0612   -3.9960   -5.9790 H         1 UNK         0.0934 
     87 H87        28.5961   -2.7831   -4.8531 H         1 UNK         0.0934 
     88 H88        28.5093   -2.3694   -7.8773 H         1 UNK         0.0739 
     89 H89        26.3215   -2.0986   -6.0153 H         1 UNK         0.3093 
     90 H90        24.4137    0.0853   -8.0475 H         1 UNK         0.0818 
     91 H91        22.7188   -1.7184   -8.2206 H         1 UNK         0.0819 
     92 H92        24.0274   -2.0117   -9.3527 H         1 UNK         0.0819 
     93 H93        23.9409   -2.9402   -7.8621 H         1 UNK         0.0819 
     94 H94        23.6412   -1.5188   -5.8269 H         1 UNK         0.3041 
     95 H95        25.1870    0.3220   -3.2467 H         1 UNK         0.0784 
     96 H96        23.2607    1.8281   -3.8077 H         1 UNK         0.0793 
     97 H97        22.2222    0.4246   -4.0193 H         1 UNK         0.0793 
     98 H98        22.9043    0.7953   -2.4346 H         1 UNK         0.0793 
     99 H99        23.3335   -1.5757   -2.7640 H         1 UNK         0.3024 
    100 H100       23.5754   -3.7816   -2.5275 H         1 UNK         0.1171 
    101 H101       24.4940   -5.0663   -4.4746 H         1 UNK         0.0786 
    102 H102       24.7723   -5.9171   -2.9632 H         1 UNK         0.0786 
    103 H103       26.0947   -5.0562   -3.7481 H         1 UNK         0.0786 
    104 H104       26.3289   -4.1063   -1.5211 H         1 UNK         0.2977 
    105 H105       27.8958   -0.3726   -4.9472 H         1 UNK         0.3127 
    106 H106       30.2845    1.1445   -5.1069 H         1 UNK         0.0770 
    107 H107       27.6301    1.7583   -3.7011 H         1 UNK         0.0814 
    108 H108       29.1461    2.6061   -3.4179 H         1 UNK         0.0814 
    109 H109       29.0106    0.9053   -3.0112 H         1 UNK         0.0814 
    110 H110       26.9705    1.8607   -6.2799 H         1 UNK         0.2983 
    111 H111       27.7605    4.4764   -7.3448 H         1 UNK         0.0947 
    112 H112       25.3458    4.6064   -7.9729 H         1 UNK         0.0806 
    113 H113       25.5708    4.2439   -6.2709 H         1 UNK         0.0806 
    114 H114       25.0888    2.9699   -7.3794 H         1 UNK         0.0806 
    115 H115       25.7984    2.0603   -9.0528 H         1 UNK         0.3000 
    116 H116       26.4323    3.0621  -11.5494 H         1 UNK         0.0850 
    117 H117       25.1921    1.0826  -12.4316 H         1 UNK         0.0810 
    118 H118       24.3595    1.8106  -11.0692 H         1 UNK         0.0810 
    119 H119       25.2676    0.3146  -10.8541 H         1 UNK         0.0810 
    120 H120       27.8286    0.1002  -10.0525 H         1 UNK         0.3040 
    121 H121       29.5792   -0.3581  -12.3599 H         1 UNK         0.0766 
    122 H122       30.2974   -2.3227  -11.1680 H         1 UNK         0.0812 
    123 H123       28.5608   -2.2090  -10.9175 H         1 UNK         0.0812 
    124 H124       29.6824   -1.7296   -9.6417 H         1 UNK         0.0812 
    125 H125       29.7689    1.8326   -9.8021 H         1 UNK         0.3205 
    126 H126       31.3164    3.0196   -8.7605 H         1 UNK         0.0754 
    127 H127       33.1236    3.9346  -10.1877 H         1 UNK         0.0769 
    128 H128       31.6321    3.8147  -11.1059 H         1 UNK         0.0769 
    129 H129       32.9144    2.6279  -11.3467 H         1 UNK         0.0769 
    130 H130       31.3722    0.4124   -7.8777 H         1 UNK         0.2981 
    131 H131       32.4060   -1.0152   -6.6557 H         1 UNK         0.0541 
    132 H132       34.1184   -2.2530   -9.9263 H         1 UNK         0.3459 
    133 H133       33.0174   -0.9001   -9.8395 H         1 UNK         0.3459 
    134 H134       34.8729    0.7925   -6.5675 H         1 UNK         0.0612 
    135 H135       34.6420   -0.6113   -5.5770 H         1 UNK         0.0612 
    136 H136       34.4024   -0.2781   -3.3438 H         1 UNK         0.0624 
    137 H137       33.5049    0.9532   -2.5083 H         1 UNK         0.0624 
@<TRIPOS>BOND
     1    1    2 1    
     2    1   72 1    
     3    1   73 1    
     4    1   74 1    
     5    2    3 2    
     6    2    4 am   BACKBONE|DICT|INTERRES
     7    4    5 1    
     8    4   75 1    
     9    5    6 1    
    10    5   35 1    
    11    5   76 1    
    12    6    7 1    
    13    6   77 1    
    14    6   78 1    
    15    7    8 1    
    16    8    9 1    
    17    8   79 1    
    18    8   80 1    
    19    9   10 ar   
    20    9   14 ar   
    21   10   11 ar   
    22   10   81 1    
    23   11   12 ar   
    24   11   71 1    
    25   12   13 ar   
    26   12   82 1    
    27   13   14 ar   
    28   13   15 1    
    29   14   83 1    
    30   15   16 1    
    31   15   84 1    
    32   15   85 1    
    33   16   17 1    
    34   17   18 1    
    35   17   86 1    
    36   17   87 1    
    37   18   19 1    
    38   18   37 1    
    39   18   88 1    
    40   19   20 am   BACKBONE|DICT|INTERRES
    41   19   89 1    
    42   20   21 2    
    43   20   22 1    
    44   22   23 1    
    45   22   24 1    
    46   22   90 1    
    47   23   91 1    
    48   23   92 1    
    49   23   93 1    
    50   24   25 am   BACKBONE|DICT|INTERRES
    51   24   94 1    
    52   25   26 2    
    53   25   27 1    
    54   27   28 1    
    55   27   29 1    
    56   27   95 1    
    57   28   96 1    
    58   28   97 1    
    59   28   98 1    
    60   29   30 am   BACKBONE|DICT|INTERRES
    61   29   99 1    
    62   30   31 2    
    63   30   32 1    
    64   32   33 1    
    65   32   34 1    
    66   32  100 1    
    67   33  101 1    
    68   33  102 1    
    69   33  103 1    
    70   34   35 am   BACKBONE|DICT|INTERRES
    71   34  104 1    
    72   35   36 2    
    73   37   38 2    
    74   37   39 am   BACKBONE|DICT|INTERRES
    75   39   40 1    
    76   39  105 1    
    77   40   41 1    
    78   40   42 1    
    79   40  106 1    
    80   41  107 1    
    81   41  108 1    
    82   41  109 1    
    83   42   43 2    
    84   42   44 am   BACKBONE|DICT|INTERRES
    85   44   45 1    
    86   44  110 1    
    87   45   46 1    
    88   45   47 1    
    89   45  111 1    
    90   46  112 1    
    91   46  113 1    
    92   46  114 1    
    93   47   48 2    
    94   47   49 am   BACKBONE|DICT|INTERRES
    95   49   50 1    
    96   49  115 1    
    97   50   51 1    
    98   50   52 1    
    99   50  116 1    
   100   51  117 1    
   101   51  118 1    
   102   51  119 1    
   103   52   53 2    
   104   52   54 am   BACKBONE|DICT|INTERRES
   105   54   55 1    
   106   54  120 1    
   107   55   56 1    
   108   55   57 1    
   109   55  121 1    
   110   56  122 1    
   111   56  123 1    
   112   56  124 1    
   113   57   58 2    
   114   57   59 am   BACKBONE|DICT|INTERRES
   115   59   60 1    
   116   59  125 1    
   117   60   61 1    
   118   60   62 1    
   119   60  126 1    
   120   61  127 1    
   121   61  128 1    
   122   61  129 1    
   123   62   63 2    
   124   62   64 am   BACKBONE|DICT|INTERRES
   125   64   65 1    
   126   64  130 1    
   127   65   66 1    
   128   65   69 1    
   129   65  131 1    
   130   66   67 am   BACKBONE|DICT|INTERRES
   131   66   68 2    
   132   67  132 1    
   133   67  133 1    
   134   69   70 1    
   135   69  134 1    
   136   69  135 1    
   137   70   71 1    
   138   71  136 1    
   139   71  137 1    
@<TRIPOS>SUBSTRUCTURE
     1 UNK         1 GROUP             0       ****    0 ROOT    
