@<TRIPOS>MOLECULE
3R137
137   139    1
SMALL
USER_CHARGES


@<TRIPOS>ATOM
      1 CA         24.5957   -5.7499   -4.9106 C.3       0 UNK        -0.2020 
      2 C          25.1662   -5.0405   -3.6927 C.2       0 UNK         0.4855 
      3 O          24.4043   -4.5155   -2.8796 O.2       0 UNK        -0.5197 
      4 N          26.4998   -5.0116   -3.5614 N.am      1 UNK        -0.4892 
      5 CA         27.2294   -4.3312   -2.4857 C.3       1 UNK         0.0835 
      6 C6         28.7482   -4.6464   -2.5069 C.3       12 UNK        -0.0855 
      7 S7         29.5651   -4.3677   -4.1196 S.3       12 UNK        -0.2931 
      8 C8         31.3052   -4.1694   -3.6072 C.3       12 UNK         0.0378 
      9 C9         31.7296   -2.7696   -3.1520 C.ar      12 UNK        -0.0802 
     10 C10        33.0998   -2.5211   -3.0350 C.ar      12 UNK        -0.0944 
     11 C11        33.5799   -1.2634   -2.6556 C.ar      12 UNK        -0.0787 
     12 C12        32.6635   -0.2533   -2.3547 C.ar      12 UNK        -0.0862 
     13 C13        31.2864   -0.4805   -2.4358 C.ar      12 UNK        -0.0733 
     14 C14        30.8264   -1.7416   -2.8407 C.ar      12 UNK        -0.0832 
     15 C15        30.3329    0.6446   -2.0270 C.3       12 UNK         0.0240 
     16 S16        28.7788    0.7386   -2.9752 S.3       12 UNK        -0.2522 
     17 C17        29.3955    1.0472   -4.6572 C.3       12 UNK        -0.0967 
     18 CA         28.2945    1.0493   -5.7428 C.3       5 UNK         0.0660 
     19 N          27.4698   -0.1657   -5.7600 N.am      5 UNK        -0.4015 
     20 C          26.7577   -0.5364   -6.8337 C.2       4 UNK         0.4946 
     21 O          26.7565    0.0932   -7.8913 O.2       4 UNK        -0.5353 
     22 CA         25.8749   -1.7823   -6.7103 C.3       4 UNK         0.0277 
     23 CB         26.7137   -3.0695   -6.7521 C.3       4 UNK        -0.1981 
     24 N          25.0630   -1.7379   -5.4953 N.am      4 UNK        -0.4209 
     25 C          23.9363   -1.0202   -5.3746 C.2       3 UNK         0.4942 
     26 O          23.4645   -0.3368   -6.2824 O.2       3 UNK        -0.5208 
     27 CA         23.2031   -1.0617   -4.0225 C.3       3 UNK         0.0250 
     28 CB         22.0815   -2.1121   -4.0521 C.3       3 UNK        -0.1990 
     29 N          24.0905   -1.3276   -2.8893 N.am      3 UNK        -0.4232 
     30 C          24.9769   -0.4429   -2.4093 C.2       2 UNK         0.4993 
     31 O          25.1260    0.6894   -2.8647 O.2       2 UNK        -0.5286 
     32 CA         25.8913   -0.9215   -1.2676 C.3       2 UNK         0.0209 
     33 CB         25.1928   -0.7474    0.0904 C.3       2 UNK        -0.1931 
     34 N          26.3431   -2.3099   -1.4125 N.am      2 UNK        -0.4546 
     35 C          26.9396   -2.8176   -2.5010 C.2       1 UNK         0.5154 
     36 O          27.1973   -2.1586   -3.5113 O.2       1 UNK        -0.5181 
     37 C          27.4494    2.3425   -5.7685 C.2       5 UNK         0.5014 
     38 O          27.8897    3.3209   -6.3734 O.2       5 UNK        -0.5248 
     39 N          26.2244    2.3209   -5.2138 N.am      6 UNK        -0.4434 
     40 CA         25.2296    3.3903   -5.3883 C.3       6 UNK         0.0363 
     41 CB         24.0313    3.1593   -4.4557 C.3       6 UNK        -0.1936 
     42 C          24.7447    3.5451   -6.8436 C.2       6 UNK         0.5081 
     43 O          24.4022    4.6558   -7.2482 O.2       6 UNK        -0.5248 
     44 N          24.7600    2.4482   -7.6139 N.am      7 UNK        -0.4718 
     45 CA         24.4952    2.4202   -9.0561 C.3       7 UNK         0.0273 
     46 CB         23.8345    1.0781   -9.4184 C.3       7 UNK        -0.1935 
     47 C          25.7640    2.6725   -9.8994 C.2       7 UNK         0.5018 
     48 O          25.7101    2.5188  -11.1204 O.2       7 UNK        -0.5186 
     49 N          26.8691    3.0627   -9.2456 N.am      8 UNK        -0.4240 
     50 CA         28.1774    3.4101   -9.8054 C.3       8 UNK         0.0235 
     51 CB         28.0756    4.6126  -10.7699 C.3       8 UNK        -0.2000 
     52 C          28.9527    2.2191  -10.3998 C.2       8 UNK         0.4941 
     53 O          29.7728    2.4261  -11.2976 O.2       8 UNK        -0.5273 
     54 N          28.7334    1.0021   -9.8776 N.am      9 UNK        -0.4262 
     55 CA         29.5931   -0.1538  -10.1543 C.3       9 UNK         0.0264 
     56 CB         28.8955   -1.4462   -9.7032 C.3       9 UNK        -0.1955 
     57 C          30.9501   -0.0064   -9.4418 C.2       9 UNK         0.5031 
     58 O          31.0225    0.6116   -8.3754 O.2       9 UNK        -0.5390 
     59 N          31.9964   -0.5902  -10.0371 N.am      10 UNK        -0.4204 
     60 CA         33.3567   -0.5971   -9.4959 C.3       10 UNK         0.0237 
     61 CB         34.3308   -1.0417  -10.6002 C.3       10 UNK        -0.1985 
     62 C          33.4881   -1.5111   -8.2651 C.2       10 UNK         0.4970 
     63 O          32.7661   -2.5052   -8.1567 O.2       10 UNK        -0.4914 
     64 N          34.4437   -1.1741   -7.3904 N.am      11 UNK        -0.4285 
     65 CA         34.8211   -1.9642   -6.2079 C.3       11 UNK         0.1007 
     66 C          35.4322   -3.3560   -6.5560 C.2       11 UNK         0.5703 
     67 N          36.1417   -3.4970   -7.6705 N.am      11 UNK        -0.7361 
     68 O          35.2380   -4.3225   -5.8227 O.2       11 UNK        -0.4986 
     69 C69        35.7364   -1.1193   -5.2776 C.3       12 UNK        -0.0947 
     70 S70        36.1459   -1.8924   -3.6738 S.3       12 UNK        -0.2240 
     71 C71        35.0750   -0.9805   -2.5101 C.3       12 UNK         0.0194 
     72 H72        24.0309   -5.0471   -5.5226 H         1 UNK         0.0906 
     73 H73        25.3768   -6.1907   -5.5297 H         1 UNK         0.0906 
     74 H74        23.9216   -6.5468   -4.5976 H         1 UNK         0.0906 
     75 H75        27.0862   -5.4217   -4.2749 H         1 UNK         0.3140 
     76 H76        26.8378   -4.7320   -1.5480 H         1 UNK         0.1085 
     77 H77        28.8988   -5.6946   -2.2437 H         1 UNK         0.0836 
     78 H78        29.2645   -4.0770   -1.7314 H         1 UNK         0.0836 
     79 H79        31.9235   -4.4547   -4.4602 H         1 UNK         0.0731 
     80 H80        31.5305   -4.8863   -2.8163 H         1 UNK         0.0731 
     81 H81        33.7978   -3.3182   -3.2523 H         1 UNK         0.1312 
     82 H82        33.0265    0.7141   -2.0343 H         1 UNK         0.1406 
     83 H83        29.7629   -1.9143   -2.9078 H         1 UNK         0.1631 
     84 H84        30.8320    1.6118   -2.1052 H         1 UNK         0.0717 
     85 H85        30.0827    0.5134   -0.9736 H         1 UNK         0.0717 
     86 H86        29.9518    1.9866   -4.6677 H         1 UNK         0.0934 
     87 H87        30.1242    0.2724   -4.9007 H         1 UNK         0.0934 
     88 H88        28.8378    1.0558   -6.6910 H         1 UNK         0.0739 
     89 H89        27.4402   -0.7248   -4.9108 H         1 UNK         0.3093 
     90 H90        25.2060   -1.7997   -7.5738 H         1 UNK         0.0818 
     91 H91        27.4269   -3.1237   -5.9300 H         1 UNK         0.0819 
     92 H92        26.0815   -3.9549   -6.7089 H         1 UNK         0.0819 
     93 H93        27.2841   -3.1316   -7.6790 H         1 UNK         0.0819 
     94 H94        25.4504   -2.1875   -4.6745 H         1 UNK         0.3041 
     95 H95        22.7438   -0.0828   -3.8693 H         1 UNK         0.0784 
     96 H96        21.3768   -1.9060   -4.8591 H         1 UNK         0.0793 
     97 H97        22.4718   -3.1179   -4.2109 H         1 UNK         0.0793 
     98 H98        21.5146   -2.1148   -3.1210 H         1 UNK         0.0793 
     99 H99        24.0701   -2.2625   -2.4994 H         1 UNK         0.3024 
    100 H100       26.7773   -0.2865   -1.2721 H         1 UNK         0.1171 
    101 H101       25.8652   -0.9811    0.9160 H         1 UNK         0.0786 
    102 H102       24.8609    0.2828    0.2280 H         1 UNK         0.0786 
    103 H103       24.3142   -1.3877    0.1793 H         1 UNK         0.0786 
    104 H104       26.1391   -2.9273   -0.6397 H         1 UNK         0.2977 
    105 H105       25.9424    1.5220   -4.6548 H         1 UNK         0.3127 
    106 H106       25.7020    4.3324   -5.1020 H         1 UNK         0.0770 
    107 H107       23.5448    2.2040   -4.6551 H         1 UNK         0.0814 
    108 H108       23.2804    3.9405   -4.5814 H         1 UNK         0.0814 
    109 H109       24.3355    3.1731   -3.4092 H         1 UNK         0.0814 
    110 H110       25.0614    1.5712   -7.2083 H         1 UNK         0.2983 
    111 H111       23.7896    3.2158   -9.3048 H         1 UNK         0.0947 
    112 H112       23.5450    1.0531  -10.4696 H         1 UNK         0.0806 
    113 H113       22.9314    0.9103   -8.8313 H         1 UNK         0.0806 
    114 H114       24.5046    0.2361   -9.2457 H         1 UNK         0.0806 
    115 H115       26.8142    3.1273   -8.2361 H         1 UNK         0.3000 
    116 H116       28.7750    3.7381   -8.9537 H         1 UNK         0.0850 
    117 H117       29.0656    4.9805  -11.0424 H         1 UNK         0.0810 
    118 H118       27.5387    5.4440  -10.3132 H         1 UNK         0.0810 
    119 H119       27.5638    4.3486  -11.6957 H         1 UNK         0.0810 
    120 H120       28.0354    0.8838   -9.1478 H         1 UNK         0.3040 
    121 H121       29.7569   -0.2079  -11.2329 H         1 UNK         0.0766 
    122 H122       27.8770   -1.5103  -10.0870 H         1 UNK         0.0812 
    123 H123       28.8544   -1.5163   -8.6164 H         1 UNK         0.0812 
    124 H124       29.4353   -2.3244  -10.0591 H         1 UNK         0.0812 
    125 H125       31.8449   -1.1159  -10.8857 H         1 UNK         0.3205 
    126 H126       33.6077    0.4243   -9.2004 H         1 UNK         0.0754 
    127 H127       35.3632   -1.0134  -10.2491 H         1 UNK         0.0769 
    128 H128       34.2707   -0.3873  -11.4702 H         1 UNK         0.0769 
    129 H129       34.1277   -2.0612  -10.9315 H         1 UNK         0.0769 
    130 H130       34.9983   -0.3496   -7.5664 H         1 UNK         0.2981 
    131 H131       33.8951   -2.1617   -5.6663 H         1 UNK         0.0541 
    132 H132       36.3032   -2.7129   -8.2813 H         1 UNK         0.3459 
    133 H133       36.5252   -4.4008   -7.8978 H         1 UNK         0.3459 
    134 H134       36.6768   -0.8959   -5.7843 H         1 UNK         0.0612 
    135 H135       35.2688   -0.1530   -5.0821 H         1 UNK         0.0612 
    136 H136       35.3728   -1.2445   -1.4948 H         1 UNK         0.0624 
    137 H137       35.2745    0.0865   -2.6214 H         1 UNK         0.0624 
@<TRIPOS>BOND
     1    1    2 1    
     2    1   72 1    
     3    1   73 1    
     4    1   74 1    
     5    2    3 2    
     6    2    4 am   BACKBONE|DICT|INTERRES
     7    4    5 1    
     8    4   75 1    
     9    5    6 1    
    10    5   35 1    
    11    5   76 1    
    12    6    7 1    
    13    6   77 1    
    14    6   78 1    
    15    7    8 1    
    16    8    9 1    
    17    8   79 1    
    18    8   80 1    
    19    9   10 ar   
    20    9   14 ar   
    21   10   11 ar   
    22   10   81 1    
    23   11   12 ar   
    24   11   71 1    
    25   12   13 ar   
    26   12   82 1    
    27   13   14 ar   
    28   13   15 1    
    29   14   83 1    
    30   15   16 1    
    31   15   84 1    
    32   15   85 1    
    33   16   17 1    
    34   17   18 1    
    35   17   86 1    
    36   17   87 1    
    37   18   19 1    
    38   18   37 1    
    39   18   88 1    
    40   19   20 am   BACKBONE|DICT|INTERRES
    41   19   89 1    
    42   20   21 2    
    43   20   22 1    
    44   22   23 1    
    45   22   24 1    
    46   22   90 1    
    47   23   91 1    
    48   23   92 1    
    49   23   93 1    
    50   24   25 am   BACKBONE|DICT|INTERRES
    51   24   94 1    
    52   25   26 2    
    53   25   27 1    
    54   27   28 1    
    55   27   29 1    
    56   27   95 1    
    57   28   96 1    
    58   28   97 1    
    59   28   98 1    
    60   29   30 am   BACKBONE|DICT|INTERRES
    61   29   99 1    
    62   30   31 2    
    63   30   32 1    
    64   32   33 1    
    65   32   34 1    
    66   32  100 1    
    67   33  101 1    
    68   33  102 1    
    69   33  103 1    
    70   34   35 am   BACKBONE|DICT|INTERRES
    71   34  104 1    
    72   35   36 2    
    73   37   38 2    
    74   37   39 am   BACKBONE|DICT|INTERRES
    75   39   40 1    
    76   39  105 1    
    77   40   41 1    
    78   40   42 1    
    79   40  106 1    
    80   41  107 1    
    81   41  108 1    
    82   41  109 1    
    83   42   43 2    
    84   42   44 am   BACKBONE|DICT|INTERRES
    85   44   45 1    
    86   44  110 1    
    87   45   46 1    
    88   45   47 1    
    89   45  111 1    
    90   46  112 1    
    91   46  113 1    
    92   46  114 1    
    93   47   48 2    
    94   47   49 am   BACKBONE|DICT|INTERRES
    95   49   50 1    
    96   49  115 1    
    97   50   51 1    
    98   50   52 1    
    99   50  116 1    
   100   51  117 1    
   101   51  118 1    
   102   51  119 1    
   103   52   53 2    
   104   52   54 am   BACKBONE|DICT|INTERRES
   105   54   55 1    
   106   54  120 1    
   107   55   56 1    
   108   55   57 1    
   109   55  121 1    
   110   56  122 1    
   111   56  123 1    
   112   56  124 1    
   113   57   58 2    
   114   57   59 am   BACKBONE|DICT|INTERRES
   115   59   60 1    
   116   59  125 1    
   117   60   61 1    
   118   60   62 1    
   119   60  126 1    
   120   61  127 1    
   121   61  128 1    
   122   61  129 1    
   123   62   63 2    
   124   62   64 am   BACKBONE|DICT|INTERRES
   125   64   65 1    
   126   64  130 1    
   127   65   66 1    
   128   65   69 1    
   129   65  131 1    
   130   66   67 am   BACKBONE|DICT|INTERRES
   131   66   68 2    
   132   67  132 1    
   133   67  133 1    
   134   69   70 1    
   135   69  134 1    
   136   69  135 1    
   137   70   71 1    
   138   71  136 1    
   139   71  137 1    
@<TRIPOS>SUBSTRUCTURE
     1 UNK         1 GROUP             0       ****    0 ROOT    
