@<TRIPOS>MOLECULE
3R137
137   139    1
SMALL
USER_CHARGES


@<TRIPOS>ATOM
      1 CA         24.5455   -5.8484   -5.2972 C.3       0 UNK        -0.2020 
      2 C          24.7847   -5.2227   -3.9321 C.2       0 UNK         0.4855 
      3 O          23.8495   -4.6986   -3.3261 O.2       0 UNK        -0.5197 
      4 N          26.0325   -5.2572   -3.4474 N.am      1 UNK        -0.4892 
      5 CA         26.4695   -4.6657   -2.1783 C.3       1 UNK         0.0835 
      6 C6         27.9314   -5.0423   -1.8235 C.3       12 UNK        -0.0855 
      7 S7         29.1343   -4.8365   -3.1888 S.3       12 UNK        -0.2931 
      8 C8         30.6577   -4.4424   -2.2756 C.3       12 UNK         0.0378 
      9 C9         31.0755   -2.9887   -2.4504 C.ar      12 UNK        -0.0802 
     10 C10        32.1548   -2.6732   -3.2812 C.ar      12 UNK        -0.0944 
     11 C11        32.6073   -1.3560   -3.3890 C.ar      12 UNK        -0.0787 
     12 C12        31.9611   -0.3450   -2.6725 C.ar      12 UNK        -0.0862 
     13 C13        30.8707   -0.6424   -1.8489 C.ar      12 UNK        -0.0733 
     14 C14        30.4291   -1.9674   -1.7444 C.ar      12 UNK        -0.0832 
     15 C15        30.2165    0.4615   -1.0259 C.3       12 UNK         0.0240 
     16 S16        29.4137    1.7350   -2.0544 S.3       12 UNK        -0.2522 
     17 C17        27.9811    0.8255   -2.7140 C.3       12 UNK        -0.0967 
     18 CA         27.9012    0.8904   -4.2610 C.3       5 UNK         0.0660 
     19 N          27.2872   -0.3151   -4.8152 N.am      5 UNK        -0.4015 
     20 C          27.1678   -0.6041   -6.1175 C.2       4 UNK         0.4946 
     21 O          27.6569    0.0715   -7.0239 O.2       4 UNK        -0.5353 
     22 CA         26.3106   -1.8325   -6.4627 C.3       4 UNK         0.0277 
     23 CB         27.1400   -3.1246   -6.3848 C.3       4 UNK        -0.1981 
     24 N          25.1358   -1.9396   -5.5905 N.am      4 UNK        -0.4209 
     25 C          24.0938   -1.0950   -5.6207 C.2       3 UNK         0.4942 
     26 O          23.9854   -0.1739   -6.4268 O.2       3 UNK        -0.5208 
     27 CA         23.0116   -1.2730   -4.5443 C.3       3 UNK         0.0250 
     28 CB         21.9848   -2.3341   -4.9697 C.3       3 UNK        -0.1990 
     29 N          23.5770   -1.6094   -3.2355 N.am      3 UNK        -0.4232 
     30 C          24.2862   -0.7471   -2.4899 C.2       2 UNK         0.4993 
     31 O          24.5017    0.4192   -2.8173 O.2       2 UNK        -0.5286 
     32 CA         24.9126   -1.2793   -1.1883 C.3       2 UNK         0.0209 
     33 CB         23.9358   -1.1135   -0.0138 C.3       2 UNK        -0.1931 
     34 N          25.3478   -2.6770   -1.2723 N.am      2 UNK        -0.4546 
     35 C          26.2332   -3.1427   -2.1640 C.2       1 UNK         0.5154 
     36 O          26.8011   -2.4262   -2.9896 O.2       1 UNK        -0.5181 
     37 C          27.1800    2.1654   -4.7508 C.2       5 UNK         0.5014 
     38 O          27.8291    3.0562   -5.3006 O.2       5 UNK        -0.5248 
     39 N          25.8475    2.2083   -4.5872 N.am      6 UNK        -0.4434 
     40 CA         24.9790    3.3065   -5.0247 C.3       6 UNK         0.0363 
     41 CB         23.5539    3.0778   -4.4973 C.3       6 UNK        -0.1936 
     42 C          24.9605    3.5107   -6.5494 C.2       6 UNK         0.5081 
     43 O          24.9431    4.6550   -7.0035 O.2       6 UNK        -0.5248 
     44 N          24.9877    2.4097   -7.3132 N.am      7 UNK        -0.4718 
     45 CA         25.0750    2.4105   -8.7776 C.3       7 UNK         0.0273 
     46 CB         24.6863    1.0200   -9.3064 C.3       7 UNK        -0.1935 
     47 C          26.4581    2.8158   -9.3217 C.2       7 UNK         0.5018 
     48 O          26.5660    3.0667  -10.5229 O.2       7 UNK        -0.5186 
     49 N          27.4756    2.8616   -8.4478 N.am      8 UNK        -0.4240 
     50 CA         28.8868    3.1357   -8.7286 C.3       8 UNK         0.0235 
     51 CB         29.0864    4.5806   -9.2352 C.3       8 UNK        -0.2000 
     52 C          29.4991    2.0699   -9.6549 C.2       8 UNK         0.4941 
     53 O          29.9996    2.3958  -10.7344 O.2       8 UNK        -0.5273 
     54 N          29.4258    0.8068   -9.2111 N.am      9 UNK        -0.4262 
     55 CA         30.0250   -0.3641   -9.8589 C.3       9 UNK         0.0264 
     56 CB         29.6119   -1.6213   -9.0749 C.3       9 UNK        -0.1955 
     57 C          31.5604   -0.2833   -9.9835 C.2       9 UNK         0.5031 
     58 O          32.2043    0.5409   -9.3272 O.2       9 UNK        -0.5390 
     59 N          32.1211   -1.1611  -10.8261 N.am      10 UNK        -0.4204 
     60 CA         33.5468   -1.2565  -11.1534 C.3       10 UNK         0.0237 
     61 CB         33.7047   -2.0959  -12.4358 C.3       10 UNK        -0.1985 
     62 C          34.4078   -1.7921   -9.9898 C.2       10 UNK         0.4970 
     63 O          34.9462   -2.8976  -10.0737 O.2       10 UNK        -0.4914 
     64 N          34.5273   -0.9869   -8.9299 N.am      11 UNK        -0.4285 
     65 CA         35.3938   -1.2147   -7.7631 C.3       11 UNK         0.1007 
     66 C          36.9209   -1.1694   -8.0683 C.2       11 UNK         0.5703 
     67 N          37.3634   -0.6111   -9.1894 N.am      11 UNK        -0.7361 
     68 O          37.7188   -1.6563   -7.2706 O.2       11 UNK        -0.4986 
     69 C69        35.0425   -0.2367   -6.6118 C.3       12 UNK        -0.0947 
     70 S70        33.3796   -0.5293   -5.9196 S.3       12 UNK        -0.2240 
     71 C71        33.8295   -1.0355   -4.2334 C.3       12 UNK         0.0194 
     72 H72        23.7864   -6.6266   -5.2239 H         1 UNK         0.0906 
     73 H73        24.1929   -5.0942   -6.0003 H         1 UNK         0.0906 
     74 H74        25.4515   -6.2963   -5.7050 H         1 UNK         0.0906 
     75 H75        26.7769   -5.6629   -3.9980 H         1 UNK         0.3140 
     76 H76        25.8357   -5.1009   -1.4022 H         1 UNK         0.1085 
     77 H77        27.9655   -6.0908   -1.5234 H         1 UNK         0.0836 
     78 H78        28.2604   -4.4809   -0.9469 H         1 UNK         0.0836 
     79 H79        31.4471   -5.1057   -2.6327 H         1 UNK         0.0731 
     80 H80        30.5460   -4.6688   -1.2145 H         1 UNK         0.0731 
     81 H81        32.6633   -3.4581   -3.8246 H         1 UNK         0.1312 
     82 H82        32.3153    0.6745   -2.7443 H         1 UNK         0.1406 
     83 H83        29.5965   -2.2110   -1.0987 H         1 UNK         0.1631 
     84 H84        30.9814    0.9415   -0.4139 H         1 UNK         0.0717 
     85 H85        29.4850    0.0505   -0.3282 H         1 UNK         0.0717 
     86 H86        28.0682   -0.2119   -2.3905 H         1 UNK         0.0934 
     87 H87        27.0726    1.1996   -2.2386 H         1 UNK         0.0934 
     88 H88        28.9175    0.9130   -4.6613 H         1 UNK         0.0739 
     89 H89        26.9340   -0.9931   -4.1433 H         1 UNK         0.3093 
     90 H90        25.9616   -1.7141   -7.4906 H         1 UNK         0.0818 
     91 H91        26.5592   -3.9889   -6.7052 H         1 UNK         0.0819 
     92 H92        28.0149   -3.0680   -7.0322 H         1 UNK         0.0819 
     93 H93        27.5022   -3.3171   -5.3749 H         1 UNK         0.0819 
     94 H94        25.1791   -2.6231   -4.8487 H         1 UNK         0.3041 
     95 H95        22.4853   -0.3210   -4.4460 H         1 UNK         0.0784 
     96 H96        21.5067   -2.0546   -5.9095 H         1 UNK         0.0793 
     97 H97        22.4436   -3.3113   -5.1189 H         1 UNK         0.0793 
     98 H98        21.1958   -2.4441   -4.2256 H         1 UNK         0.0793 
     99 H99        23.4862   -2.5716   -2.9279 H         1 UNK         0.3024 
    100 H100       25.7972   -0.6722   -0.9849 H         1 UNK         0.1171 
    101 H101       24.4002   -1.3932    0.9321 H         1 UNK         0.0786 
    102 H102       23.6131   -0.0755    0.0809 H         1 UNK         0.0786 
    103 H103       23.0402   -1.7226   -0.1428 H         1 UNK         0.0786 
    104 H104       24.8958   -3.3281   -0.6460 H         1 UNK         0.2977 
    105 H105       25.3896    1.4504   -4.0831 H         1 UNK         0.3127 
    106 H106       25.3638    4.2249   -4.5764 H         1 UNK         0.0770 
    107 H107       23.1266    2.1514   -4.8831 H         1 UNK         0.0814 
    108 H108       22.8913    3.8922   -4.7931 H         1 UNK         0.0814 
    109 H109       23.5373    3.0254   -3.4086 H         1 UNK         0.0814 
    110 H110       24.9142    1.4995   -6.8660 H         1 UNK         0.2983 
    111 H111       24.3540    3.1356   -9.1612 H         1 UNK         0.0947 
    112 H112       25.3684    0.2499   -8.9443 H         1 UNK         0.0806 
    113 H113       24.7108    0.9918  -10.3966 H         1 UNK         0.0806 
    114 H114       23.6766    0.7464   -8.9998 H         1 UNK         0.0806 
    115 H115       27.2711    2.6119   -7.4874 H         1 UNK         0.3000 
    116 H116       29.4087    3.0500   -7.7739 H         1 UNK         0.0850 
    117 H117       30.1472    4.8092   -9.3442 H         1 UNK         0.0810 
    118 H118       28.6678    5.3054   -8.5369 H         1 UNK         0.0810 
    119 H119       28.6197    4.7424  -10.2072 H         1 UNK         0.0810 
    120 H120       28.9306    0.6296   -8.3395 H         1 UNK         0.3040 
    121 H121       29.6105   -0.4259  -10.8671 H         1 UNK         0.0766 
    122 H122       30.0105   -2.5295   -9.5283 H         1 UNK         0.0812 
    123 H123       28.5272   -1.7271   -9.0494 H         1 UNK         0.0812 
    124 H124       29.9702   -1.5856   -8.0449 H         1 UNK         0.0812 
    125 H125       31.5179   -1.8223  -11.2942 H         1 UNK         0.3205 
    126 H126       33.9068   -0.2498  -11.3770 H         1 UNK         0.0754 
    127 H127       34.7529   -2.1666  -12.7302 H         1 UNK         0.0769 
    128 H128       33.1668   -1.6488  -13.2721 H         1 UNK         0.0769 
    129 H129       33.3341   -3.1132  -12.3029 H         1 UNK         0.0769 
    130 H130       33.9516   -0.1495   -8.9115 H         1 UNK         0.2981 
    131 H131       35.1948   -2.2290   -7.4117 H         1 UNK         0.0541 
    132 H132       38.3541   -0.5929   -9.3737 H         1 UNK         0.3459 
    133 H133       36.7198   -0.2003   -9.8459 H         1 UNK         0.3459 
    134 H134       35.7753   -0.3098   -5.8058 H         1 UNK         0.0612 
    135 H135       35.0907    0.7957   -6.9627 H         1 UNK         0.0612 
    136 H136       34.4894   -1.9033   -4.2838 H         1 UNK         0.0624 
    137 H137       34.4045   -0.2382   -3.7597 H         1 UNK         0.0624 
@<TRIPOS>BOND
     1    1    2 1    
     2    1   72 1    
     3    1   73 1    
     4    1   74 1    
     5    2    3 2    
     6    2    4 am   BACKBONE|DICT|INTERRES
     7    4    5 1    
     8    4   75 1    
     9    5    6 1    
    10    5   35 1    
    11    5   76 1    
    12    6    7 1    
    13    6   77 1    
    14    6   78 1    
    15    7    8 1    
    16    8    9 1    
    17    8   79 1    
    18    8   80 1    
    19    9   10 ar   
    20    9   14 ar   
    21   10   11 ar   
    22   10   81 1    
    23   11   12 ar   
    24   11   71 1    
    25   12   13 ar   
    26   12   82 1    
    27   13   14 ar   
    28   13   15 1    
    29   14   83 1    
    30   15   16 1    
    31   15   84 1    
    32   15   85 1    
    33   16   17 1    
    34   17   18 1    
    35   17   86 1    
    36   17   87 1    
    37   18   19 1    
    38   18   37 1    
    39   18   88 1    
    40   19   20 am   BACKBONE|DICT|INTERRES
    41   19   89 1    
    42   20   21 2    
    43   20   22 1    
    44   22   23 1    
    45   22   24 1    
    46   22   90 1    
    47   23   91 1    
    48   23   92 1    
    49   23   93 1    
    50   24   25 am   BACKBONE|DICT|INTERRES
    51   24   94 1    
    52   25   26 2    
    53   25   27 1    
    54   27   28 1    
    55   27   29 1    
    56   27   95 1    
    57   28   96 1    
    58   28   97 1    
    59   28   98 1    
    60   29   30 am   BACKBONE|DICT|INTERRES
    61   29   99 1    
    62   30   31 2    
    63   30   32 1    
    64   32   33 1    
    65   32   34 1    
    66   32  100 1    
    67   33  101 1    
    68   33  102 1    
    69   33  103 1    
    70   34   35 am   BACKBONE|DICT|INTERRES
    71   34  104 1    
    72   35   36 2    
    73   37   38 2    
    74   37   39 am   BACKBONE|DICT|INTERRES
    75   39   40 1    
    76   39  105 1    
    77   40   41 1    
    78   40   42 1    
    79   40  106 1    
    80   41  107 1    
    81   41  108 1    
    82   41  109 1    
    83   42   43 2    
    84   42   44 am   BACKBONE|DICT|INTERRES
    85   44   45 1    
    86   44  110 1    
    87   45   46 1    
    88   45   47 1    
    89   45  111 1    
    90   46  112 1    
    91   46  113 1    
    92   46  114 1    
    93   47   48 2    
    94   47   49 am   BACKBONE|DICT|INTERRES
    95   49   50 1    
    96   49  115 1    
    97   50   51 1    
    98   50   52 1    
    99   50  116 1    
   100   51  117 1    
   101   51  118 1    
   102   51  119 1    
   103   52   53 2    
   104   52   54 am   BACKBONE|DICT|INTERRES
   105   54   55 1    
   106   54  120 1    
   107   55   56 1    
   108   55   57 1    
   109   55  121 1    
   110   56  122 1    
   111   56  123 1    
   112   56  124 1    
   113   57   58 2    
   114   57   59 am   BACKBONE|DICT|INTERRES
   115   59   60 1    
   116   59  125 1    
   117   60   61 1    
   118   60   62 1    
   119   60  126 1    
   120   61  127 1    
   121   61  128 1    
   122   61  129 1    
   123   62   63 2    
   124   62   64 am   BACKBONE|DICT|INTERRES
   125   64   65 1    
   126   64  130 1    
   127   65   66 1    
   128   65   69 1    
   129   65  131 1    
   130   66   67 am   BACKBONE|DICT|INTERRES
   131   66   68 2    
   132   67  132 1    
   133   67  133 1    
   134   69   70 1    
   135   69  134 1    
   136   69  135 1    
   137   70   71 1    
   138   71  136 1    
   139   71  137 1    
@<TRIPOS>SUBSTRUCTURE
     1 UNK         1 GROUP             0       ****    0 ROOT    
