@<TRIPOS>MOLECULE
3R137
137   139    1
SMALL
USER_CHARGES


@<TRIPOS>ATOM
      1 CA         25.6164   -2.4698   -8.6053 C.3       0 UNK        -0.2020 
      2 C          25.2924   -3.3691   -7.4245 C.2       0 UNK         0.4855 
      3 O          24.2328   -3.9965   -7.4080 O.2       0 UNK        -0.5197 
      4 N          26.1991   -3.4459   -6.4427 N.am      1 UNK        -0.4892 
      5 CA         26.0176   -4.2222   -5.2113 C.3       1 UNK         0.0835 
      6 C6         27.3434   -4.4084   -4.4386 C.3       12 UNK        -0.0855 
      7 S7         28.6142   -5.2981   -5.3958 S.3       12 UNK        -0.2931 
      8 C8         29.8745   -5.5805   -4.1101 C.3       12 UNK         0.0378 
      9 C9         30.5314   -4.2791   -3.6723 C.ar      12 UNK        -0.0802 
     10 C10        31.6443   -3.7874   -4.3605 C.ar      12 UNK        -0.0944 
     11 C11        32.2410   -2.5823   -3.9777 C.ar      12 UNK        -0.0787 
     12 C12        31.7120   -1.8647   -2.9005 C.ar      12 UNK        -0.0862 
     13 C13        30.5938   -2.3425   -2.2094 C.ar      12 UNK        -0.0733 
     14 C14        30.0216   -3.5603   -2.5865 C.ar      12 UNK        -0.0832 
     15 C15        29.9995   -1.5425   -1.0576 C.3       12 UNK         0.0240 
     16 S16        28.3484   -0.8734   -1.4526 S.3       12 UNK        -0.2522 
     17 C17        28.7009    0.2216   -2.8695 C.3       12 UNK        -0.0967 
     18 CA         27.8406   -0.1515   -4.1085 C.3       5 UNK         0.0660 
     19 N          26.3997    0.0717   -3.9219 N.am      5 UNK        -0.4015 
     20 C          25.7795    1.2393   -3.6929 C.2       4 UNK         0.4946 
     21 O          26.3540    2.3258   -3.6017 O.2       4 UNK        -0.5353 
     22 CA         24.2542    1.1885   -3.5417 C.3       4 UNK         0.0277 
     23 CB         23.5738    0.9379   -4.8990 C.3       4 UNK        -0.1981 
     24 N          23.8305    0.1761   -2.5742 N.am      4 UNK        -0.4209 
     25 C          23.9412    0.3004   -1.2417 C.2       3 UNK         0.4942 
     26 O          24.4228    1.2906   -0.6898 O.2       3 UNK        -0.5208 
     27 CA         23.3906   -0.8416   -0.3635 C.3       3 UNK         0.0250 
     28 CB         22.1836   -0.3573    0.4591 C.3       3 UNK        -0.1990 
     29 N          22.9829   -2.0056   -1.1529 N.am      3 UNK        -0.4232 
     30 C          23.7913   -3.0186   -1.4858 C.2       2 UNK         0.4993 
     31 O          24.9293   -3.1627   -1.0344 O.2       2 UNK        -0.5286 
     32 CA         23.2537   -4.0358   -2.5145 C.3       2 UNK         0.0209 
     33 CB         21.9569   -3.5900   -3.2315 C.3       2 UNK        -0.1931 
     34 N          24.2729   -4.3989   -3.5077 N.am      2 UNK        -0.4546 
     35 C          24.9678   -3.5625   -4.2949 C.2       1 UNK         0.5154 
     36 O          24.8417   -2.3319   -4.2907 O.2       1 UNK        -0.5181 
     37 C          28.3724    0.5089   -5.3959 C.2       5 UNK         0.5014 
     38 O          28.6877   -0.1956   -6.3538 O.2       5 UNK        -0.5248 
     39 N          28.4413    1.8465   -5.3972 N.am      6 UNK        -0.4434 
     40 CA         29.0284    2.7115   -6.4266 C.3       6 UNK         0.0363 
     41 CB         29.0830    4.1466   -5.8769 C.3       6 UNK        -0.1936 
     42 C          28.3305    2.6880   -7.7986 C.2       6 UNK         0.5081 
     43 O          28.8539    3.2731   -8.7469 O.2       6 UNK        -0.5248 
     44 N          27.1741    2.0213   -7.8926 N.am      7 UNK        -0.4718 
     45 CA         26.4007    1.8271   -9.1200 C.3       7 UNK         0.0273 
     46 CB         25.0076    1.2951   -8.7425 C.3       7 UNK        -0.1935 
     47 C          27.0812    0.9236  -10.1708 C.2       7 UNK         0.5018 
     48 O          26.6190    0.9006  -11.3125 O.2       7 UNK        -0.5186 
     49 N          28.1507    0.2081   -9.7963 N.am      8 UNK        -0.4240 
     50 CA         28.9672   -0.6070  -10.6929 C.3       8 UNK         0.0235 
     51 CB         28.3991   -2.0364  -10.7598 C.3       8 UNK        -0.2000 
     52 C          30.4248   -0.6152  -10.2156 C.2       8 UNK         0.4941 
     53 O          30.7143   -0.1820   -9.0974 O.2       8 UNK        -0.5273 
     54 N          31.3123   -1.1138  -11.0906 N.am      9 UNK        -0.4262 
     55 CA         32.7304   -1.4397  -10.8628 C.3       9 UNK         0.0264 
     56 CB         32.8382   -2.6696   -9.9368 C.3       9 UNK        -0.1955 
     57 C          33.6305   -0.2769  -10.3895 C.2       9 UNK         0.5031 
     58 O          34.7480   -0.5300   -9.9359 O.2       9 UNK        -0.5390 
     59 N          33.1432    0.9672  -10.5134 N.am      10 UNK        -0.4204 
     60 CA         33.7574    2.2170  -10.0477 C.3       10 UNK         0.0237 
     61 CB         35.0247    2.5466  -10.8664 C.3       10 UNK        -0.1985 
     62 C          33.9994    2.2486   -8.5226 C.2       10 UNK         0.4970 
     63 O          34.9646    2.8677   -8.0710 O.2       10 UNK        -0.4914 
     64 N          33.1155    1.5953   -7.7550 N.am      11 UNK        -0.4285 
     65 CA         33.1740    1.5123   -6.2848 C.3       11 UNK         0.1007 
     66 C          32.8333    2.8330   -5.5299 C.2       11 UNK         0.5703 
     67 N          32.4484    3.9128   -6.1997 N.am      11 UNK        -0.7361 
     68 O          32.9339    2.8827   -4.3065 O.2       11 UNK        -0.4986 
     69 C69        32.3320    0.3212   -5.7582 C.3       12 UNK        -0.0947 
     70 S70        32.9975   -1.2851   -6.3068 S.3       12 UNK        -0.2240 
     71 C71        33.4594   -2.0646   -4.7292 C.3       12 UNK         0.0194 
     72 H72        24.7475   -1.8687   -8.8705 H         1 UNK         0.0906 
     73 H73        26.4443   -1.7960   -8.3855 H         1 UNK         0.0906 
     74 H74        25.8814   -3.0773   -9.4695 H         1 UNK         0.0906 
     75 H75        27.0570   -2.9164   -6.5044 H         1 UNK         0.3140 
     76 H76        25.6447   -5.2093   -5.4951 H         1 UNK         0.1085 
     77 H77        27.1703   -4.9637   -3.5143 H         1 UNK         0.0836 
     78 H78        27.7457   -3.4409   -4.1419 H         1 UNK         0.0836 
     79 H79        29.4230   -6.0885   -3.2563 H         1 UNK         0.0731 
     80 H80        30.6311   -6.2620   -4.5021 H         1 UNK         0.0731 
     81 H81        32.0416   -4.3375   -5.2028 H         1 UNK         0.1312 
     82 H82        32.1671   -0.9295   -2.6045 H         1 UNK         0.1406 
     83 H83        29.1590   -3.9314   -2.0495 H         1 UNK         0.1631 
     84 H84        30.6575   -0.7198   -0.7733 H         1 UNK         0.0717 
     85 H85        29.9180   -2.1853   -0.1800 H         1 UNK         0.0717 
     86 H86        29.7632    0.1668   -3.1115 H         1 UNK         0.0934 
     87 H87        28.5269    1.2521   -2.5569 H         1 UNK         0.0934 
     88 H88        27.9526   -1.2231   -4.2667 H         1 UNK         0.0739 
     89 H89        25.8212   -0.7632   -3.9997 H         1 UNK         0.3093 
     90 H90        23.9247    2.1649   -3.1790 H         1 UNK         0.0818 
     91 H91        22.4882    0.9795   -4.8102 H         1 UNK         0.0819 
     92 H92        23.8662    1.6971   -5.6256 H         1 UNK         0.0819 
     93 H93        23.8368   -0.0335   -5.3195 H         1 UNK         0.0819 
     94 H94        23.4859   -0.6949   -2.9517 H         1 UNK         0.3041 
     95 H95        24.1829   -1.1274    0.3320 H         1 UNK         0.0784 
     96 H96        22.4563    0.4865    1.0947 H         1 UNK         0.0793 
     97 H97        21.3621   -0.0312   -0.1801 H         1 UNK         0.0793 
     98 H98        21.8086   -1.1442    1.1138 H         1 UNK         0.0793 
     99 H99        22.0545   -1.9796   -1.5504 H         1 UNK         0.3024 
    100 H100       23.0291   -4.9421   -1.9494 H         1 UNK         0.1171 
    101 H101       21.6319   -4.3436   -3.9493 H         1 UNK         0.0786 
    102 H102       22.0898   -2.6564   -3.7799 H         1 UNK         0.0786 
    103 H103       21.1340   -3.4556   -2.5284 H         1 UNK         0.0786 
    104 H104       24.4883   -5.3851   -3.5565 H         1 UNK         0.2977 
    105 H105       28.0031    2.3175   -4.6093 H         1 UNK         0.3127 
    106 H106       30.0484    2.3677   -6.5987 H         1 UNK         0.0770 
    107 H107       28.0856    4.5334   -5.6640 H         1 UNK         0.0814 
    108 H108       29.5506    4.8252   -6.5916 H         1 UNK         0.0814 
    109 H109       29.6668    4.1972   -4.9577 H         1 UNK         0.0814 
    110 H110       26.8357    1.5585   -7.0624 H         1 UNK         0.2983 
    111 H111       26.2729    2.8038   -9.5918 H         1 UNK         0.0947 
    112 H112       24.4157    1.0661   -9.6299 H         1 UNK         0.0806 
    113 H113       24.4485    2.0334   -8.1676 H         1 UNK         0.0806 
    114 H114       25.0695    0.3868   -8.1441 H         1 UNK         0.0806 
    115 H115       28.5172    0.3028   -8.8549 H         1 UNK         0.3000 
    116 H116       28.9531   -0.1659  -11.6922 H         1 UNK         0.0850 
    117 H117       28.9711   -2.6613  -11.4465 H         1 UNK         0.0810 
    118 H118       27.3689   -2.0348  -11.1155 H         1 UNK         0.0810 
    119 H119       28.4225   -2.5221   -9.7835 H         1 UNK         0.0810 
    120 H120       30.9610   -1.3902  -11.9977 H         1 UNK         0.3040 
    121 H121       33.1292   -1.7308  -11.8357 H         1 UNK         0.0766 
    122 H122       32.4369   -2.4606   -8.9455 H         1 UNK         0.0812 
    123 H123       33.8738   -2.9871   -9.8098 H         1 UNK         0.0812 
    124 H124       32.2906   -3.5196  -10.3435 H         1 UNK         0.0812 
    125 H125       32.2079    1.0521  -10.8859 H         1 UNK         0.3205 
    126 H126       33.0275    3.0030  -10.2469 H         1 UNK         0.0754 
    127 H127       35.4004    3.5416  -10.6242 H         1 UNK         0.0769 
    128 H128       34.8204    2.5319  -11.9370 H         1 UNK         0.0769 
    129 H129       35.8303    1.8388  -10.6688 H         1 UNK         0.0769 
    130 H130       32.3614    1.0822   -8.1968 H         1 UNK         0.2981 
    131 H131       34.2138    1.3086   -6.0220 H         1 UNK         0.0541 
    132 H132       32.3866    3.8985   -7.2039 H         1 UNK         0.3459 
    133 H133       32.2523    4.7603   -5.6922 H         1 UNK         0.3459 
    134 H134       31.3040    0.3964   -6.1109 H         1 UNK         0.0612 
    135 H135       32.2798    0.3298   -4.6694 H         1 UNK         0.0612 
    136 H136       34.1351   -2.8957   -4.9360 H         1 UNK         0.0624 
    137 H137       34.0246   -1.3567   -4.1210 H         1 UNK         0.0624 
@<TRIPOS>BOND
     1    1    2 1    
     2    1   72 1    
     3    1   73 1    
     4    1   74 1    
     5    2    3 2    
     6    2    4 am   BACKBONE|DICT|INTERRES
     7    4    5 1    
     8    4   75 1    
     9    5    6 1    
    10    5   35 1    
    11    5   76 1    
    12    6    7 1    
    13    6   77 1    
    14    6   78 1    
    15    7    8 1    
    16    8    9 1    
    17    8   79 1    
    18    8   80 1    
    19    9   10 ar   
    20    9   14 ar   
    21   10   11 ar   
    22   10   81 1    
    23   11   12 ar   
    24   11   71 1    
    25   12   13 ar   
    26   12   82 1    
    27   13   14 ar   
    28   13   15 1    
    29   14   83 1    
    30   15   16 1    
    31   15   84 1    
    32   15   85 1    
    33   16   17 1    
    34   17   18 1    
    35   17   86 1    
    36   17   87 1    
    37   18   19 1    
    38   18   37 1    
    39   18   88 1    
    40   19   20 am   BACKBONE|DICT|INTERRES
    41   19   89 1    
    42   20   21 2    
    43   20   22 1    
    44   22   23 1    
    45   22   24 1    
    46   22   90 1    
    47   23   91 1    
    48   23   92 1    
    49   23   93 1    
    50   24   25 am   BACKBONE|DICT|INTERRES
    51   24   94 1    
    52   25   26 2    
    53   25   27 1    
    54   27   28 1    
    55   27   29 1    
    56   27   95 1    
    57   28   96 1    
    58   28   97 1    
    59   28   98 1    
    60   29   30 am   BACKBONE|DICT|INTERRES
    61   29   99 1    
    62   30   31 2    
    63   30   32 1    
    64   32   33 1    
    65   32   34 1    
    66   32  100 1    
    67   33  101 1    
    68   33  102 1    
    69   33  103 1    
    70   34   35 am   BACKBONE|DICT|INTERRES
    71   34  104 1    
    72   35   36 2    
    73   37   38 2    
    74   37   39 am   BACKBONE|DICT|INTERRES
    75   39   40 1    
    76   39  105 1    
    77   40   41 1    
    78   40   42 1    
    79   40  106 1    
    80   41  107 1    
    81   41  108 1    
    82   41  109 1    
    83   42   43 2    
    84   42   44 am   BACKBONE|DICT|INTERRES
    85   44   45 1    
    86   44  110 1    
    87   45   46 1    
    88   45   47 1    
    89   45  111 1    
    90   46  112 1    
    91   46  113 1    
    92   46  114 1    
    93   47   48 2    
    94   47   49 am   BACKBONE|DICT|INTERRES
    95   49   50 1    
    96   49  115 1    
    97   50   51 1    
    98   50   52 1    
    99   50  116 1    
   100   51  117 1    
   101   51  118 1    
   102   51  119 1    
   103   52   53 2    
   104   52   54 am   BACKBONE|DICT|INTERRES
   105   54   55 1    
   106   54  120 1    
   107   55   56 1    
   108   55   57 1    
   109   55  121 1    
   110   56  122 1    
   111   56  123 1    
   112   56  124 1    
   113   57   58 2    
   114   57   59 am   BACKBONE|DICT|INTERRES
   115   59   60 1    
   116   59  125 1    
   117   60   61 1    
   118   60   62 1    
   119   60  126 1    
   120   61  127 1    
   121   61  128 1    
   122   61  129 1    
   123   62   63 2    
   124   62   64 am   BACKBONE|DICT|INTERRES
   125   64   65 1    
   126   64  130 1    
   127   65   66 1    
   128   65   69 1    
   129   65  131 1    
   130   66   67 am   BACKBONE|DICT|INTERRES
   131   66   68 2    
   132   67  132 1    
   133   67  133 1    
   134   69   70 1    
   135   69  134 1    
   136   69  135 1    
   137   70   71 1    
   138   71  136 1    
   139   71  137 1    
@<TRIPOS>SUBSTRUCTURE
     1 UNK         1 GROUP             0       ****    0 ROOT    
