@<TRIPOS>MOLECULE
3R137
137   139    1
SMALL
USER_CHARGES


@<TRIPOS>ATOM
      1 CA         26.6575   -1.1121    3.8463 C.3       0 UNK        -0.2020 
      2 C          26.8185   -0.4944    2.4654 C.2       0 UNK         0.4855 
      3 O          26.5768    0.7011    2.2977 O.2       0 UNK        -0.5197 
      4 N          27.2251   -1.2996    1.4752 N.am      1 UNK        -0.4892 
      5 CA         27.4443   -0.8761    0.0840 C.3       1 UNK         0.0835 
      6 C6         28.2717   -1.9173   -0.7106 C.3       12 UNK        -0.0855 
      7 S7         29.9297   -2.1684    0.0044 S.3       12 UNK        -0.2931 
      8 C8         30.6448   -3.3821   -1.1574 C.3       12 UNK         0.0378 
      9 C9         30.8179   -2.8531   -2.5799 C.ar      12 UNK        -0.0802 
     10 C10        31.3472   -1.5802   -2.8182 C.ar      12 UNK        -0.0944 
     11 C11        31.5117   -1.0969   -4.1198 C.ar      12 UNK        -0.0787 
     12 C12        31.1444   -1.9158   -5.1975 C.ar      12 UNK        -0.0862 
     13 C13        30.6575   -3.2078   -4.9774 C.ar      12 UNK        -0.0733 
     14 C14        30.4833   -3.6643   -3.6679 C.ar      12 UNK        -0.0832 
     15 C15        30.3701   -4.1359   -6.1485 C.3       12 UNK         0.0240 
     16 S16        28.6151   -4.1083   -6.6351 S.3       12 UNK        -0.2522 
     17 C17        28.6857   -3.4309   -8.3344 C.3       12 UNK        -0.0967 
     18 CA         27.8566   -2.1406   -8.5361 C.3       5 UNK         0.0660 
     19 N          26.4430   -2.3245   -8.2011 N.am      5 UNK        -0.4015 
     20 C          25.4711   -1.4523   -8.5022 C.2       4 UNK         0.4946 
     21 O          25.6549   -0.4202   -9.1456 O.2       4 UNK        -0.5353 
     22 CA         24.0675   -1.7556   -7.9529 C.3       4 UNK         0.0277 
     23 CB         23.2756   -2.6211   -8.9456 C.3       4 UNK        -0.1981 
     24 N          24.0853   -2.4023   -6.6362 N.am      4 UNK        -0.4209 
     25 C          24.5792   -1.8433   -5.5232 C.2       3 UNK         0.4942 
     26 O          25.0952   -0.7231   -5.4864 O.2       3 UNK        -0.5208 
     27 CA         24.5420   -2.7046   -4.2587 C.3       3 UNK         0.0250 
     28 CB         25.8361   -3.5273   -4.1273 C.3       3 UNK        -0.1990 
     29 N          24.4053   -1.8421   -3.0896 N.am      3 UNK        -0.4232 
     30 C          23.6379   -2.0980   -2.0245 C.2       2 UNK         0.4993 
     31 O          22.9420   -3.1091   -1.9085 O.2       2 UNK        -0.5286 
     32 CA         23.7060   -1.0762   -0.8748 C.3       2 UNK         0.0209 
     33 CB         22.6033   -1.2902    0.1796 C.3       2 UNK        -0.1931 
     34 N          25.0109   -1.1531   -0.2161 N.am      2 UNK        -0.4546 
     35 C          26.1300   -0.5676   -0.6635 C.2       1 UNK         0.5154 
     36 O          26.1520    0.1752   -1.6451 O.2       1 UNK        -0.5181 
     37 C          28.4831   -0.9326   -7.8133 C.2       5 UNK         0.5014 
     38 O          29.2971   -0.2349   -8.4151 O.2       5 UNK        -0.5248 
     39 N          28.0744   -0.6813   -6.5618 N.am      6 UNK        -0.4434 
     40 CA         28.5102    0.4717   -5.7766 C.3       6 UNK         0.0363 
     41 CB         28.1853    0.2455   -4.2941 C.3       6 UNK        -0.1936 
     42 C          27.8862    1.7748   -6.2915 C.2       6 UNK         0.5081 
     43 O          28.5867    2.7823   -6.3798 O.2       6 UNK        -0.5248 
     44 N          26.6020    1.7214   -6.6757 N.am      7 UNK        -0.4718 
     45 CA         25.8827    2.8264   -7.3182 C.3       7 UNK         0.0273 
     46 CB         24.3901    2.4769   -7.4275 C.3       7 UNK        -0.1935 
     47 C          26.4659    3.1958   -8.6952 C.2       7 UNK         0.5018 
     48 O          26.5787    4.3816   -9.0071 O.2       7 UNK        -0.5186 
     49 N          26.8585    2.1785   -9.4748 N.am      8 UNK        -0.4240 
     50 CA         27.5455    2.3197  -10.7623 C.3       8 UNK         0.0235 
     51 CB         27.4152    0.9984  -11.5390 C.3       8 UNK        -0.2000 
     52 C          29.0311    2.7143  -10.6413 C.2       8 UNK         0.4941 
     53 O          29.6294    3.0728  -11.6564 O.2       8 UNK        -0.5273 
     54 N          29.6029    2.6166   -9.4308 N.am      9 UNK        -0.4262 
     55 CA         31.0194    2.8004   -9.0895 C.3       9 UNK         0.0264 
     56 CB         31.4640    4.2612   -9.3125 C.3       9 UNK        -0.1955 
     57 C          31.9426    1.7722   -9.7771 C.2       9 UNK         0.5031 
     58 O          33.0765    2.0965  -10.1356 O.2       9 UNK        -0.5390 
     59 N          31.4517    0.5357   -9.9209 N.am      10 UNK        -0.4204 
     60 CA         32.1607   -0.6213  -10.4650 C.3       10 UNK         0.0237 
     61 CB         31.1820   -1.4321  -11.3356 C.3       10 UNK        -0.1985 
     62 C          32.7458   -1.4426   -9.3036 C.2       10 UNK         0.4970 
     63 O          32.4284   -2.6233   -9.1504 O.2       10 UNK        -0.4914 
     64 N          33.5550   -0.7746   -8.4762 N.am      11 UNK        -0.4285 
     65 CA         34.0931   -1.2947   -7.2098 C.3       11 UNK         0.1007 
     66 C          35.4405   -2.0587   -7.3517 C.2       11 UNK         0.5703 
     67 N          36.0336   -2.1503   -8.5364 N.am      11 UNK        -0.7361 
     68 O          35.9533   -2.5906   -6.3700 O.2       11 UNK        -0.4986 
     69 C69        34.1767   -0.1766   -6.1341 C.3       12 UNK        -0.0947 
     70 S70        32.6258    0.7786   -5.9633 S.3       12 UNK        -0.2240 
     71 C71        32.0602    0.3221   -4.2896 C.3       12 UNK         0.0194 
     72 H72        27.3068   -0.6069    4.5609 H         1 UNK         0.0906 
     73 H73        25.6280   -1.0060    4.1871 H         1 UNK         0.0906 
     74 H74        26.9089   -2.1726    3.8515 H         1 UNK         0.0906 
     75 H75        27.4436   -2.2658    1.6757 H         1 UNK         0.3140 
     76 H76        28.0103    0.0582    0.1054 H         1 UNK         0.1085 
     77 H77        27.7536   -2.8776   -0.7522 H         1 UNK         0.0836 
     78 H78        28.3990   -1.5929   -1.7447 H         1 UNK         0.0836 
     79 H79        31.6220   -3.6886   -0.7824 H         1 UNK         0.0731 
     80 H80        30.0188   -4.2758   -1.1516 H         1 UNK         0.0731 
     81 H81        31.6242   -0.9546   -1.9806 H         1 UNK         0.1312 
     82 H82        31.2413   -1.5621   -6.2138 H         1 UNK         0.1406 
     83 H83        30.1003   -4.6618   -3.4994 H         1 UNK         0.1631 
     84 H84        30.6319   -5.1587   -5.8737 H         1 UNK         0.0717 
     85 H85        31.0206   -3.8867   -6.9874 H         1 UNK         0.0717 
     86 H86        29.7183   -3.2606   -8.6435 H         1 UNK         0.0934 
     87 H87        28.3148   -4.2042   -9.0090 H         1 UNK         0.0934 
     88 H88        27.8927   -1.9064   -9.6024 H         1 UNK         0.0739 
     89 H89        26.2130   -3.1493   -7.6669 H         1 UNK         0.3093 
     90 H90        23.5481   -0.8012   -7.8438 H         1 UNK         0.0818 
     91 H91        22.2467   -2.7646   -8.6148 H         1 UNK         0.0819 
     92 H92        23.2339   -2.1474   -9.9276 H         1 UNK         0.0819 
     93 H93        23.7273   -3.6051   -9.0778 H         1 UNK         0.0819 
     94 H94        23.6854   -3.3286   -6.5809 H         1 UNK         0.3041 
     95 H95        23.6876   -3.3816   -4.3276 H         1 UNK         0.0784 
     96 H96        25.9612   -4.2026   -4.9743 H         1 UNK         0.0793 
     97 H97        26.7202   -2.8891   -4.0823 H         1 UNK         0.0793 
     98 H98        25.8242   -4.1409   -3.2264 H         1 UNK         0.0793 
     99 H99        24.9384   -0.9789   -3.1201 H         1 UNK         0.3024 
    100 H100       23.5698   -0.0807   -1.3046 H         1 UNK         0.1171 
    101 H101       21.6135   -1.2379   -0.2759 H         1 UNK         0.0786 
    102 H102       22.6433   -0.5241    0.9542 H         1 UNK         0.0786 
    103 H103       22.6881   -2.2627    0.6662 H         1 UNK         0.0786 
    104 H104       25.0831   -1.7634    0.5850 H         1 UNK         0.2977 
    105 H105       27.3715   -1.2756   -6.1469 H         1 UNK         0.3127 
    106 H106       29.5926    0.5603   -5.8788 H         1 UNK         0.0770 
    107 H107       27.1113    0.2102   -4.1161 H         1 UNK         0.0814 
    108 H108       28.5895    1.0497   -3.6786 H         1 UNK         0.0814 
    109 H109       28.6150   -0.6883   -3.9339 H         1 UNK         0.0814 
    110 H110       26.0895    0.8585   -6.5265 H         1 UNK         0.2983 
    111 H111       25.9811    3.7028   -6.6739 H         1 UNK         0.0947 
    112 H112       23.8251    3.3122   -7.8432 H         1 UNK         0.0806 
    113 H113       23.9627    2.2492   -6.4507 H         1 UNK         0.0806 
    114 H114       24.2215    1.6166   -8.0751 H         1 UNK         0.0806 
    115 H115       26.6373    1.2303   -9.1795 H         1 UNK         0.3000 
    116 H116       27.0456    3.1046  -11.3338 H         1 UNK         0.0850 
    117 H117       27.8697    1.0767  -12.5276 H         1 UNK         0.0810 
    118 H118       26.3702    0.7237  -11.6838 H         1 UNK         0.0810 
    119 H119       27.9082    0.1772  -11.0176 H         1 UNK         0.0810 
    120 H120       29.0188    2.3004   -8.6671 H         1 UNK         0.3040 
    121 H121       31.0924    2.5974   -8.0201 H         1 UNK         0.0766 
    122 H122       32.4679    4.4270   -8.9198 H         1 UNK         0.0812 
    123 H123       30.7988    4.9592   -8.8043 H         1 UNK         0.0812 
    124 H124       31.4828    4.5232  -10.3707 H         1 UNK         0.0812 
    125 H125       30.5558    0.3299   -9.4738 H         1 UNK         0.3205 
    126 H126       32.9898   -0.2956  -11.0963 H         1 UNK         0.0754 
    127 H127       31.6755   -2.2993  -11.7763 H         1 UNK         0.0769 
    128 H128       30.7916   -0.8290  -12.1556 H         1 UNK         0.0769 
    129 H129       30.3324   -1.7960  -10.7566 H         1 UNK         0.0769 
    130 H130       33.7629    0.1927   -8.6811 H         1 UNK         0.2981 
    131 H131       33.3976   -2.0452   -6.8346 H         1 UNK         0.0541 
    132 H132       35.6187   -1.7245   -9.3493 H         1 UNK         0.3459 
    133 H133       36.9037   -2.6526   -8.6161 H         1 UNK         0.3459 
    134 H134       34.4435   -0.6017   -5.1649 H         1 UNK         0.0612 
    135 H135       34.9705    0.5291   -6.3848 H         1 UNK         0.0612 
    136 H136       31.2765    1.0231   -4.0003 H         1 UNK         0.0624 
    137 H137       32.8848    0.4828   -3.5935 H         1 UNK         0.0624 
@<TRIPOS>BOND
     1    1    2 1    
     2    1   72 1    
     3    1   73 1    
     4    1   74 1    
     5    2    3 2    
     6    2    4 am   BACKBONE|DICT|INTERRES
     7    4    5 1    
     8    4   75 1    
     9    5    6 1    
    10    5   35 1    
    11    5   76 1    
    12    6    7 1    
    13    6   77 1    
    14    6   78 1    
    15    7    8 1    
    16    8    9 1    
    17    8   79 1    
    18    8   80 1    
    19    9   10 ar   
    20    9   14 ar   
    21   10   11 ar   
    22   10   81 1    
    23   11   12 ar   
    24   11   71 1    
    25   12   13 ar   
    26   12   82 1    
    27   13   14 ar   
    28   13   15 1    
    29   14   83 1    
    30   15   16 1    
    31   15   84 1    
    32   15   85 1    
    33   16   17 1    
    34   17   18 1    
    35   17   86 1    
    36   17   87 1    
    37   18   19 1    
    38   18   37 1    
    39   18   88 1    
    40   19   20 am   BACKBONE|DICT|INTERRES
    41   19   89 1    
    42   20   21 2    
    43   20   22 1    
    44   22   23 1    
    45   22   24 1    
    46   22   90 1    
    47   23   91 1    
    48   23   92 1    
    49   23   93 1    
    50   24   25 am   BACKBONE|DICT|INTERRES
    51   24   94 1    
    52   25   26 2    
    53   25   27 1    
    54   27   28 1    
    55   27   29 1    
    56   27   95 1    
    57   28   96 1    
    58   28   97 1    
    59   28   98 1    
    60   29   30 am   BACKBONE|DICT|INTERRES
    61   29   99 1    
    62   30   31 2    
    63   30   32 1    
    64   32   33 1    
    65   32   34 1    
    66   32  100 1    
    67   33  101 1    
    68   33  102 1    
    69   33  103 1    
    70   34   35 am   BACKBONE|DICT|INTERRES
    71   34  104 1    
    72   35   36 2    
    73   37   38 2    
    74   37   39 am   BACKBONE|DICT|INTERRES
    75   39   40 1    
    76   39  105 1    
    77   40   41 1    
    78   40   42 1    
    79   40  106 1    
    80   41  107 1    
    81   41  108 1    
    82   41  109 1    
    83   42   43 2    
    84   42   44 am   BACKBONE|DICT|INTERRES
    85   44   45 1    
    86   44  110 1    
    87   45   46 1    
    88   45   47 1    
    89   45  111 1    
    90   46  112 1    
    91   46  113 1    
    92   46  114 1    
    93   47   48 2    
    94   47   49 am   BACKBONE|DICT|INTERRES
    95   49   50 1    
    96   49  115 1    
    97   50   51 1    
    98   50   52 1    
    99   50  116 1    
   100   51  117 1    
   101   51  118 1    
   102   51  119 1    
   103   52   53 2    
   104   52   54 am   BACKBONE|DICT|INTERRES
   105   54   55 1    
   106   54  120 1    
   107   55   56 1    
   108   55   57 1    
   109   55  121 1    
   110   56  122 1    
   111   56  123 1    
   112   56  124 1    
   113   57   58 2    
   114   57   59 am   BACKBONE|DICT|INTERRES
   115   59   60 1    
   116   59  125 1    
   117   60   61 1    
   118   60   62 1    
   119   60  126 1    
   120   61  127 1    
   121   61  128 1    
   122   61  129 1    
   123   62   63 2    
   124   62   64 am   BACKBONE|DICT|INTERRES
   125   64   65 1    
   126   64  130 1    
   127   65   66 1    
   128   65   69 1    
   129   65  131 1    
   130   66   67 am   BACKBONE|DICT|INTERRES
   131   66   68 2    
   132   67  132 1    
   133   67  133 1    
   134   69   70 1    
   135   69  134 1    
   136   69  135 1    
   137   70   71 1    
   138   71  136 1    
   139   71  137 1    
@<TRIPOS>SUBSTRUCTURE
     1 UNK         1 GROUP             0       ****    0 ROOT    
