@<TRIPOS>MOLECULE
3R137
137   139    1
SMALL
USER_CHARGES


@<TRIPOS>ATOM
      1 CA         29.0675    0.0323   -2.9022 C.3       0 UNK        -0.2020 
      2 C          29.5394    0.1227   -1.4550 C.2       0 UNK         0.4855 
      3 O          30.0550    1.1634   -1.0528 O.2       0 UNK        -0.5197 
      4 N          29.4037   -0.9304   -0.6378 N.am      1 UNK        -0.4892 
      5 CA         28.7392   -2.2055   -0.9312 C.3       1 UNK         0.0835 
      6 C6         29.1208   -3.2617    0.1366 C.3       12 UNK        -0.0855 
      7 S7         28.7549   -4.9763   -0.3703 S.3       12 UNK        -0.2931 
      8 C8         30.3668   -5.5292   -1.0167 C.3       12 UNK         0.0378 
      9 C9         30.7013   -4.8640   -2.3442 C.ar      12 UNK        -0.0802 
     10 C10        31.7644   -3.9593   -2.4426 C.ar      12 UNK        -0.0944 
     11 C11        32.0719   -3.3560   -3.6670 C.ar      12 UNK        -0.0787 
     12 C12        31.2971   -3.6583   -4.7932 C.ar      12 UNK        -0.0862 
     13 C13        30.2286   -4.5563   -4.7056 C.ar      12 UNK        -0.0733 
     14 C14        29.9439   -5.1633   -3.4803 C.ar      12 UNK        -0.0832 
     15 C15        29.3882   -4.8870   -5.9329 C.3       12 UNK         0.0240 
     16 S16        27.6895   -4.2407   -5.7927 S.3       12 UNK        -0.2522 
     17 C17        27.9745   -2.4424   -5.8486 C.3       12 UNK        -0.0967 
     18 CA         27.1102   -1.7257   -6.9155 C.3       5 UNK         0.0660 
     19 N          25.6714   -1.9034   -6.7176 N.am      5 UNK        -0.4015 
     20 C          24.7463   -1.6866   -7.6643 C.2       4 UNK         0.4946 
     21 O          25.0131   -1.4173   -8.8357 O.2       4 UNK        -0.5353 
     22 CA         23.2705   -1.7589   -7.2328 C.3       4 UNK         0.0277 
     23 CB         22.7295   -3.1871   -7.4068 C.3       4 UNK        -0.1981 
     24 N          23.0486   -1.3191   -5.8529 N.am      4 UNK        -0.4209 
     25 C          23.2417   -0.0683   -5.4085 C.2       3 UNK         0.4942 
     26 O          23.5768    0.8724   -6.1282 O.2       3 UNK        -0.5208 
     27 CA         23.0956    0.1529   -3.8915 C.3       3 UNK         0.0250 
     28 CB         21.6329    0.4534   -3.5284 C.3       3 UNK        -0.1990 
     29 N          23.5860   -0.9718   -3.0825 N.am      3 UNK        -0.4232 
     30 C          24.8426   -1.4371   -3.1134 C.2       2 UNK         0.4993 
     31 O          25.7195   -0.9750   -3.8477 O.2       2 UNK        -0.5286 
     32 CA         25.1453   -2.6706   -2.2476 C.3       2 UNK         0.0209 
     33 CB         24.7076   -3.9499   -2.9803 C.3       2 UNK        -0.1931 
     34 N          26.5734   -2.7740   -1.9402 N.am      2 UNK        -0.4546 
     35 C          27.2092   -2.0169   -1.0377 C.2       1 UNK         0.5154 
     36 O          26.6391   -1.2042   -0.3045 O.2       1 UNK        -0.5181 
     37 C          27.4450   -0.2271   -6.9500 C.2       5 UNK         0.5014 
     38 O          28.1508    0.2112   -7.8570 O.2       5 UNK        -0.5248 
     39 N          26.9392    0.5338   -5.9653 N.am      6 UNK        -0.4434 
     40 CA         27.1588    1.9778   -5.8189 C.3       6 UNK         0.0363 
     41 CB         26.4323    2.4940   -4.5673 C.3       6 UNK        -0.1936 
     42 C          26.7394    2.7795   -7.0621 C.2       6 UNK         0.5081 
     43 O          27.5070    3.6217   -7.5288 O.2       6 UNK        -0.5248 
     44 N          25.5691    2.4426   -7.6215 N.am      7 UNK        -0.4718 
     45 CA         25.0381    2.9955   -8.8717 C.3       7 UNK         0.0273 
     46 CB         23.6091    2.4680   -9.0782 C.3       7 UNK        -0.1935 
     47 C          25.8986    2.7031  -10.1178 C.2       7 UNK         0.5018 
     48 O          25.7797    3.4281  -11.1061 O.2       7 UNK        -0.5186 
     49 N          26.7448    1.6665  -10.0553 N.am      8 UNK        -0.4240 
     50 CA         27.6644    1.2572  -11.1172 C.3       8 UNK         0.0235 
     51 CB         27.6229   -0.2778  -11.2337 C.3       8 UNK        -0.2000 
     52 C          29.1040    1.7585  -10.8844 C.2       8 UNK         0.4941 
     53 O          29.9864    1.3642  -11.6482 O.2       8 UNK        -0.5273 
     54 N          29.3234    2.6036   -9.8607 N.am      9 UNK        -0.4262 
     55 CA         30.6154    3.1364   -9.4024 C.3       9 UNK         0.0264 
     56 CB         31.2797    4.0197  -10.4811 C.3       9 UNK        -0.1955 
     57 C          31.5330    2.0120   -8.8846 C.2       9 UNK         0.5031 
     58 O          32.5460    1.6902   -9.5090 O.2       9 UNK        -0.5390 
     59 N          31.1069    1.4157   -7.7645 N.am      10 UNK        -0.4204 
     60 CA         31.6781    0.2444   -7.0957 C.3       10 UNK         0.0237 
     61 CB         30.9477    0.0639   -5.7557 C.3       10 UNK        -0.1985 
     62 C          33.1915    0.3171   -6.8224 C.2       10 UNK         0.4970 
     63 O          33.6623    1.3241   -6.2879 O.2       10 UNK        -0.4914 
     64 N          33.8846   -0.7946   -7.1059 N.am      11 UNK        -0.4285 
     65 CA         35.2926   -1.0690   -6.7674 C.3       11 UNK         0.1007 
     66 C          36.2860    0.0203   -7.2802 C.2       11 UNK         0.5703 
     67 N          37.3281    0.3646   -6.5336 N.am      11 UNK        -0.7361 
     68 O          36.1521    0.5141   -8.3982 O.2       11 UNK        -0.4986 
     69 C69        35.4655   -1.4749   -5.2708 C.3       12 UNK        -0.0947 
     70 S70        34.5481   -3.0019   -4.8628 S.3       12 UNK        -0.2240 
     71 C71        33.2323   -2.3719   -3.7749 C.3       12 UNK         0.0194 
     72 H72        29.3609    0.9265   -3.4507 H         1 UNK         0.0906 
     73 H73        29.5034   -0.8298   -3.4044 H         1 UNK         0.0906 
     74 H74        27.9831   -0.0371   -2.9523 H         1 UNK         0.0906 
     75 H75        29.7026   -0.8199    0.3206 H         1 UNK         0.3140 
     76 H76        29.1101   -2.5529   -1.8969 H         1 UNK         0.1085 
     77 H77        30.1870   -3.1975    0.3611 H         1 UNK         0.0836 
     78 H78        28.6118   -3.0606    1.0816 H         1 UNK         0.0836 
     79 H79        31.1446   -5.3442   -0.2741 H         1 UNK         0.0731 
     80 H80        30.3353   -6.6102   -1.1603 H         1 UNK         0.0731 
     81 H81        32.3546   -3.7275   -1.5665 H         1 UNK         0.1312 
     82 H82        31.5369   -3.2016   -5.7432 H         1 UNK         0.1406 
     83 H83        29.1210   -5.8620   -3.4076 H         1 UNK         0.1631 
     84 H84        29.8494   -4.4988   -6.8424 H         1 UNK         0.0717 
     85 H85        29.3429   -5.9704   -6.0527 H         1 UNK         0.0717 
     86 H86        27.7931   -2.0447   -4.8503 H         1 UNK         0.0934 
     87 H87        29.0302   -2.2596   -6.0532 H         1 UNK         0.0934 
     88 H88        27.3726   -2.1420   -7.8909 H         1 UNK         0.0739 
     89 H89        25.3738   -2.0712   -5.7671 H         1 UNK         0.3093 
     90 H90        22.7047   -1.0942   -7.8895 H         1 UNK         0.0818 
     91 H91        21.6634   -3.2383   -7.1847 H         1 UNK         0.0819 
     92 H92        22.8607   -3.5302   -8.4342 H         1 UNK         0.0819 
     93 H93        23.2438   -3.8977   -6.7584 H         1 UNK         0.0819 
     94 H94        22.7618   -2.0229   -5.1887 H         1 UNK         0.3041 
     95 H95        23.6954    1.0264   -3.6299 H         1 UNK         0.0784 
     96 H96        21.2546    1.2992   -4.1047 H         1 UNK         0.0793 
     97 H97        20.9808   -0.3970   -3.7316 H         1 UNK         0.0793 
     98 H98        21.5305    0.7119   -2.4743 H         1 UNK         0.0793 
     99 H99        22.9163   -1.4099   -2.4658 H         1 UNK         0.3024 
    100 H100       24.5900   -2.5867   -1.3103 H         1 UNK         0.1171 
    101 H101       24.9114   -4.8378   -2.3812 H         1 UNK         0.0786 
    102 H102       23.6365   -3.9417   -3.1859 H         1 UNK         0.0786 
    103 H103       25.2222   -4.0671   -3.9348 H         1 UNK         0.0786 
    104 H104       27.1076   -3.4199   -2.5033 H         1 UNK         0.2977 
    105 H105       26.3900    0.0786   -5.2383 H         1 UNK         0.3127 
    106 H106       28.2300    2.1297   -5.6744 H         1 UNK         0.0770 
    107 H107       25.3506    2.4057   -4.6645 H         1 UNK         0.0814 
    108 H108       26.6566    3.5475   -4.3960 H         1 UNK         0.0814 
    109 H109       26.7334    1.9492   -3.6730 H         1 UNK         0.0814 
    110 H110       24.9850    1.7590   -7.1445 H         1 UNK         0.2983 
    111 H111       24.9931    4.0808   -8.7599 H         1 UNK         0.0947 
    112 H112       23.1668    2.8744   -9.9888 H         1 UNK         0.0806 
    113 H113       22.9589    2.7490   -8.2493 H         1 UNK         0.0806 
    114 H114       23.5921    1.3802   -9.1617 H         1 UNK         0.0806 
    115 H115       26.8183    1.1452   -9.1884 H         1 UNK         0.3000 
    116 H116       27.3352    1.6729  -12.0717 H         1 UNK         0.0850 
    117 H117       26.6055   -0.6364  -11.3920 H         1 UNK         0.0810 
    118 H118       28.0100   -0.7619  -10.3367 H         1 UNK         0.0810 
    119 H119       28.2227   -0.6252  -12.0758 H         1 UNK         0.0810 
    120 H120       28.5292    2.8504   -9.2802 H         1 UNK         0.3040 
    121 H121       30.3948    3.7825   -8.5508 H         1 UNK         0.0766 
    122 H122       30.6156    4.8232  -10.7991 H         1 UNK         0.0812 
    123 H123       31.5625    3.4487  -11.3657 H         1 UNK         0.0812 
    124 H124       32.1883    4.4824  -10.0943 H         1 UNK         0.0812 
    125 H125       30.2292    1.7391   -7.3858 H         1 UNK         0.3205 
    126 H126       31.4606   -0.6133   -7.7352 H         1 UNK         0.0754 
    127 H127       31.3094    0.7615   -4.9983 H         1 UNK         0.0769 
    128 H128       31.0857   -0.9417   -5.3703 H         1 UNK         0.0769 
    129 H129       29.8785    0.2190   -5.8442 H         1 UNK         0.0769 
    130 H130       33.4067   -1.5534   -7.5680 H         1 UNK         0.2981 
    131 H131       35.5557   -1.9465   -7.3592 H         1 UNK         0.0541 
    132 H132       37.9764    1.0513   -6.8860 H         1 UNK         0.3459 
    133 H133       37.4707   -0.0384   -5.6213 H         1 UNK         0.3459 
    134 H134       35.1623   -0.6610   -4.6101 H         1 UNK         0.0612 
    135 H135       36.5121   -1.6822   -5.0444 H         1 UNK         0.0612 
    136 H136       32.8709   -1.4170   -4.1510 H         1 UNK         0.0624 
    137 H137       33.6612   -2.1670   -2.7930 H         1 UNK         0.0624 
@<TRIPOS>BOND
     1    1    2 1    
     2    1   72 1    
     3    1   73 1    
     4    1   74 1    
     5    2    3 2    
     6    2    4 am   BACKBONE|DICT|INTERRES
     7    4    5 1    
     8    4   75 1    
     9    5    6 1    
    10    5   35 1    
    11    5   76 1    
    12    6    7 1    
    13    6   77 1    
    14    6   78 1    
    15    7    8 1    
    16    8    9 1    
    17    8   79 1    
    18    8   80 1    
    19    9   10 ar   
    20    9   14 ar   
    21   10   11 ar   
    22   10   81 1    
    23   11   12 ar   
    24   11   71 1    
    25   12   13 ar   
    26   12   82 1    
    27   13   14 ar   
    28   13   15 1    
    29   14   83 1    
    30   15   16 1    
    31   15   84 1    
    32   15   85 1    
    33   16   17 1    
    34   17   18 1    
    35   17   86 1    
    36   17   87 1    
    37   18   19 1    
    38   18   37 1    
    39   18   88 1    
    40   19   20 am   BACKBONE|DICT|INTERRES
    41   19   89 1    
    42   20   21 2    
    43   20   22 1    
    44   22   23 1    
    45   22   24 1    
    46   22   90 1    
    47   23   91 1    
    48   23   92 1    
    49   23   93 1    
    50   24   25 am   BACKBONE|DICT|INTERRES
    51   24   94 1    
    52   25   26 2    
    53   25   27 1    
    54   27   28 1    
    55   27   29 1    
    56   27   95 1    
    57   28   96 1    
    58   28   97 1    
    59   28   98 1    
    60   29   30 am   BACKBONE|DICT|INTERRES
    61   29   99 1    
    62   30   31 2    
    63   30   32 1    
    64   32   33 1    
    65   32   34 1    
    66   32  100 1    
    67   33  101 1    
    68   33  102 1    
    69   33  103 1    
    70   34   35 am   BACKBONE|DICT|INTERRES
    71   34  104 1    
    72   35   36 2    
    73   37   38 2    
    74   37   39 am   BACKBONE|DICT|INTERRES
    75   39   40 1    
    76   39  105 1    
    77   40   41 1    
    78   40   42 1    
    79   40  106 1    
    80   41  107 1    
    81   41  108 1    
    82   41  109 1    
    83   42   43 2    
    84   42   44 am   BACKBONE|DICT|INTERRES
    85   44   45 1    
    86   44  110 1    
    87   45   46 1    
    88   45   47 1    
    89   45  111 1    
    90   46  112 1    
    91   46  113 1    
    92   46  114 1    
    93   47   48 2    
    94   47   49 am   BACKBONE|DICT|INTERRES
    95   49   50 1    
    96   49  115 1    
    97   50   51 1    
    98   50   52 1    
    99   50  116 1    
   100   51  117 1    
   101   51  118 1    
   102   51  119 1    
   103   52   53 2    
   104   52   54 am   BACKBONE|DICT|INTERRES
   105   54   55 1    
   106   54  120 1    
   107   55   56 1    
   108   55   57 1    
   109   55  121 1    
   110   56  122 1    
   111   56  123 1    
   112   56  124 1    
   113   57   58 2    
   114   57   59 am   BACKBONE|DICT|INTERRES
   115   59   60 1    
   116   59  125 1    
   117   60   61 1    
   118   60   62 1    
   119   60  126 1    
   120   61  127 1    
   121   61  128 1    
   122   61  129 1    
   123   62   63 2    
   124   62   64 am   BACKBONE|DICT|INTERRES
   125   64   65 1    
   126   64  130 1    
   127   65   66 1    
   128   65   69 1    
   129   65  131 1    
   130   66   67 am   BACKBONE|DICT|INTERRES
   131   66   68 2    
   132   67  132 1    
   133   67  133 1    
   134   69   70 1    
   135   69  134 1    
   136   69  135 1    
   137   70   71 1    
   138   71  136 1    
   139   71  137 1    
@<TRIPOS>SUBSTRUCTURE
     1 UNK         1 GROUP             0       ****    0 ROOT    
