@<TRIPOS>MOLECULE
3R137
137   139    1
SMALL
USER_CHARGES


@<TRIPOS>ATOM
      1 CA         26.7276    1.7800    2.5301 C.3       0 UNK        -0.2020 
      2 C          26.5415    1.2088    1.1328 C.2       0 UNK         0.4855 
      3 O          25.9922    1.8844    0.2610 O.2       0 UNK        -0.5197 
      4 N          26.9918   -0.0318    0.9079 N.am      1 UNK        -0.4892 
      5 CA         26.8874   -0.7479   -0.3680 C.3       1 UNK         0.0835 
      6 C6         27.9611   -1.8573   -0.5049 C.3       12 UNK        -0.0855 
      7 S7         29.6540   -1.1866   -0.4539 S.3       12 UNK        -0.2931 
      8 C8         30.6163   -2.6403   -0.9742 C.3       12 UNK         0.0378 
      9 C9         30.6972   -2.7668   -2.4894 C.ar      12 UNK        -0.0802 
     10 C10        31.5707   -1.9435   -3.2054 C.ar      12 UNK        -0.0944 
     11 C11        31.7140   -2.0917   -4.5868 C.ar      12 UNK        -0.0787 
     12 C12        30.9748   -3.0707   -5.2559 C.ar      12 UNK        -0.0862 
     13 C13        30.0941   -3.8995   -4.5541 C.ar      12 UNK        -0.0733 
     14 C14        29.9513   -3.7354   -3.1708 C.ar      12 UNK        -0.0832 
     15 C15        29.3502   -5.0171   -5.2739 C.3       12 UNK         0.0240 
     16 S16        27.8046   -4.4487   -6.0486 S.3       12 UNK        -0.2522 
     17 C17        28.3725   -3.8810   -7.6958 C.3       12 UNK        -0.0967 
     18 CA         27.8178   -2.4949   -8.1104 C.3       5 UNK         0.0660 
     19 N          26.3562   -2.4493   -8.0174 N.am      5 UNK        -0.4015 
     20 C          25.5779   -1.4512   -8.4536 C.2       4 UNK         0.4946 
     21 O          26.0014   -0.4498   -9.0261 O.2       4 UNK        -0.5353 
     22 CA         24.0729   -1.5671   -8.1632 C.3       4 UNK         0.0277 
     23 CB         23.3677   -2.3378   -9.2905 C.3       4 UNK        -0.1981 
     24 N          23.7582   -2.1854   -6.8705 N.am      4 UNK        -0.4209 
     25 C          24.1707   -1.7345   -5.6780 C.2       3 UNK         0.4942 
     26 O          24.9310   -0.7734   -5.5225 O.2       3 UNK        -0.5208 
     27 CA         23.6816   -2.5152   -4.4571 C.3       3 UNK         0.0250 
     28 CB         24.6019   -3.7151   -4.1702 C.3       3 UNK        -0.1990 
     29 N          23.6788   -1.6190   -3.3079 N.am      3 UNK        -0.4232 
     30 C          22.8560   -1.6973   -2.2563 C.2       2 UNK         0.4993 
     31 O          21.9610   -2.5388   -2.1499 O.2       2 UNK        -0.5286 
     32 CA         23.0906   -0.6657   -1.1323 C.3       2 UNK         0.0209 
     33 CB         22.3664   -1.0329    0.1810 C.3       2 UNK        -0.1931 
     34 N          24.5161   -0.4070   -0.8768 N.am      2 UNK        -0.4546 
     35 C          25.4600   -1.3030   -0.5480 C.2       1 UNK         0.5154 
     36 O          25.2415   -2.5027   -0.3682 O.2       1 UNK        -0.5181 
     37 C          28.5044   -1.3446   -7.3457 C.2       5 UNK         0.5014 
     38 O          29.4629   -0.7620   -7.8569 O.2       5 UNK        -0.5248 
     39 N          27.9885   -1.0223   -6.1530 N.am      6 UNK        -0.4434 
     40 CA         28.4663    0.0811   -5.3257 C.3       6 UNK         0.0363 
     41 CB         28.0304   -0.1409   -3.8710 C.3       6 UNK        -0.1936 
     42 C          27.9663    1.4324   -5.8539 C.2       6 UNK         0.5081 
     43 O          28.7408    2.3875   -5.8847 O.2       6 UNK        -0.5248 
     44 N          26.6981    1.4830   -6.2892 N.am      7 UNK        -0.4718 
     45 CA         26.0569    2.6735   -6.8569 C.3       7 UNK         0.0273 
     46 CB         24.5544    2.4117   -7.0420 C.3       7 UNK        -0.1935 
     47 C          26.6974    3.1365   -8.1773 C.2       7 UNK         0.5018 
     48 O          26.9131    4.3357   -8.3556 O.2       7 UNK        -0.5186 
     49 N          27.0161    2.1821   -9.0632 N.am      8 UNK        -0.4240 
     50 CA         27.7320    2.4184  -10.3208 C.3       8 UNK         0.0235 
     51 CB         27.4649    1.2461  -11.2800 C.3       8 UNK        -0.2000 
     52 C          29.2482    2.6110  -10.1335 C.2       8 UNK         0.4941 
     53 O          29.9100    3.0332  -11.0826 O.2       8 UNK        -0.5273 
     54 N          29.7670    2.2861   -8.9387 N.am      9 UNK        -0.4262 
     55 CA         31.1777    2.2958   -8.5406 C.3       9 UNK         0.0264 
     56 CB         31.7343    3.7347   -8.5043 C.3       9 UNK        -0.1955 
     57 C          32.0247    1.3374   -9.3973 C.2       9 UNK         0.5031 
     58 O          33.0592    1.7336   -9.9397 O.2       9 UNK        -0.5390 
     59 N          31.5784    0.0748   -9.4821 N.am      10 UNK        -0.4204 
     60 CA         32.2142   -1.0107  -10.2433 C.3       10 UNK         0.0237 
     61 CB         31.3196   -2.2595  -10.1768 C.3       10 UNK        -0.1985 
     62 C          33.6465   -1.3514   -9.7867 C.2       10 UNK         0.4970 
     63 O          34.4071   -1.9345  -10.5599 O.2       10 UNK        -0.4914 
     64 N          33.9848   -0.9643   -8.5523 N.am      11 UNK        -0.4285 
     65 CA         35.3302   -1.0105   -7.9690 C.3       11 UNK         0.1007 
     66 C          36.3386   -0.0095   -8.6081 C.2       11 UNK         0.5703 
     67 N          35.9053    0.9898   -9.3702 N.am      11 UNK        -0.7361 
     68 O          37.5433   -0.1482   -8.4100 O.2       11 UNK        -0.4986 
     69 C69        35.2726   -0.8183   -6.4307 C.3       12 UNK        -0.0947 
     70 S70        34.2724   -2.0920   -5.5923 S.3       12 UNK        -0.2240 
     71 C71        32.6935   -1.2188   -5.3517 C.3       12 UNK         0.0194 
     72 H72        25.7597    2.0226    2.9678 H         1 UNK         0.0906 
     73 H73        27.2343    1.0794    3.1935 H         1 UNK         0.0906 
     74 H74        27.3202    2.6934    2.4855 H         1 UNK         0.0906 
     75 H75        27.4304   -0.5464    1.6586 H         1 UNK         0.3140 
     76 H76        27.0570   -0.0334   -1.1759 H         1 UNK         0.1085 
     77 H77        27.8573   -2.6001    0.2885 H         1 UNK         0.0836 
     78 H78        27.8321   -2.3934   -1.4473 H         1 UNK         0.0836 
     79 H79        31.6262   -2.5497   -0.5713 H         1 UNK         0.0731 
     80 H80        30.1956   -3.5427   -0.5276 H         1 UNK         0.0731 
     81 H81        32.1548   -1.1997   -2.6805 H         1 UNK         0.1312 
     82 H82        31.1092   -3.1993   -6.3201 H         1 UNK         0.1406 
     83 H83        29.2833   -4.3839   -2.6202 H         1 UNK         0.1631 
     84 H84        29.1036   -5.8093   -4.5654 H         1 UNK         0.0717 
     85 H85        29.9947   -5.4814   -6.0217 H         1 UNK         0.0717 
     86 H86        29.4613   -3.8899   -7.7515 H         1 UNK         0.0934 
     87 H87        28.0483   -4.6266   -8.4235 H         1 UNK         0.0934 
     88 H88        28.0653   -2.3474   -9.1639 H         1 UNK         0.0739 
     89 H89        25.9216   -3.2269   -7.5427 H         1 UNK         0.3093 
     90 H90        23.6663   -0.5550   -8.1434 H         1 UNK         0.0818 
     91 H91        22.2856   -2.3348   -9.1579 H         1 UNK         0.0819 
     92 H92        23.5730   -1.8831  -10.2609 H         1 UNK         0.0819 
     93 H93        23.6979   -3.3761   -9.3411 H         1 UNK         0.0819 
     94 H94        23.1462   -2.9890   -6.8958 H         1 UNK         0.3041 
     95 H95        22.6656   -2.8658   -4.6519 H         1 UNK         0.0784 
     96 H96        24.6336   -4.4026   -5.0163 H         1 UNK         0.0793 
     97 H97        25.6256   -3.3971   -3.9668 H         1 UNK         0.0793 
     98 H98        24.2543   -4.2819   -3.3062 H         1 UNK         0.0793 
     99 H99        24.3470   -0.8615   -3.3685 H         1 UNK         0.3024 
    100 H100       22.6632    0.2718   -1.4922 H         1 UNK         0.1171 
    101 H101       21.2891   -1.1068    0.0272 H         1 UNK         0.0786 
    102 H102       22.5312   -0.2774    0.9492 H         1 UNK         0.0786 
    103 H103       22.7049   -1.9916    0.5754 H         1 UNK         0.0786 
    104 H104       24.8039    0.5659   -0.9113 H         1 UNK         0.2977 
    105 H105       27.1733   -1.5211   -5.8246 H         1 UNK         0.3127 
    106 H106       29.5585    0.0889   -5.3524 H         1 UNK         0.0770 
    107 H107       26.9453   -0.1544   -3.7677 H         1 UNK         0.0814 
    108 H108       28.4146    0.6508   -3.2265 H         1 UNK         0.0814 
    109 H109       28.4183   -1.0847   -3.4888 H         1 UNK         0.0814 
    110 H110       26.1198    0.6529   -6.1911 H         1 UNK         0.2983 
    111 H111       26.1736    3.4835   -6.1335 H         1 UNK         0.0947 
    112 H112       24.0416    3.3127   -7.3811 H         1 UNK         0.0806 
    113 H113       24.0852    2.1016   -6.1081 H         1 UNK         0.0806 
    114 H114       24.3709    1.6353   -7.7840 H         1 UNK         0.0806 
    115 H115       26.7398    1.2187   -8.8751 H         1 UNK         0.3000 
    116 H116       27.3402    3.3297  -10.7779 H         1 UNK         0.0850 
    117 H117       27.9279    1.4209  -12.2521 H         1 UNK         0.0810 
    118 H118       26.3971    1.1067  -11.4497 H         1 UNK         0.0810 
    119 H119       27.8673    0.3096  -10.8908 H         1 UNK         0.0810 
    120 H120       29.1250    1.9538   -8.2314 H         1 UNK         0.3040 
    121 H121       31.2082    1.9066   -7.5216 H         1 UNK         0.0766 
    122 H122       32.7495    3.7492   -8.1060 H         1 UNK         0.0812 
    123 H123       31.1265    4.3771   -7.8670 H         1 UNK         0.0812 
    124 H124       31.7698    4.1832   -9.4976 H         1 UNK         0.0812 
    125 H125       30.7357   -0.1741   -8.9610 H         1 UNK         0.3205 
    126 H126       32.2766   -0.6855  -11.2837 H         1 UNK         0.0754 
    127 H127       31.7361   -3.0726  -10.7729 H         1 UNK         0.0769 
    128 H128       30.3212   -2.0535  -10.5634 H         1 UNK         0.0769 
    129 H129       31.2157   -2.6238   -9.1541 H         1 UNK         0.0769 
    130 H130       33.2858   -0.4920   -8.0031 H         1 UNK         0.2981 
    131 H131       35.7306   -2.0068   -8.1655 H         1 UNK         0.0541 
    132 H132       34.9155    1.1315   -9.5454 H         1 UNK         0.3459 
    133 H133       36.5770    1.6218   -9.7752 H         1 UNK         0.3459 
    134 H134       34.8912    0.1728   -6.1780 H         1 UNK         0.0612 
    135 H135       36.2764   -0.8722   -6.0050 H         1 UNK         0.0612 
    136 H136       32.8698   -0.2857   -4.8143 H         1 UNK         0.0624 
    137 H137       32.2638   -0.9478   -6.3167 H         1 UNK         0.0624 
@<TRIPOS>BOND
     1    1    2 1    
     2    1   72 1    
     3    1   73 1    
     4    1   74 1    
     5    2    3 2    
     6    2    4 am   BACKBONE|DICT|INTERRES
     7    4    5 1    
     8    4   75 1    
     9    5    6 1    
    10    5   35 1    
    11    5   76 1    
    12    6    7 1    
    13    6   77 1    
    14    6   78 1    
    15    7    8 1    
    16    8    9 1    
    17    8   79 1    
    18    8   80 1    
    19    9   10 ar   
    20    9   14 ar   
    21   10   11 ar   
    22   10   81 1    
    23   11   12 ar   
    24   11   71 1    
    25   12   13 ar   
    26   12   82 1    
    27   13   14 ar   
    28   13   15 1    
    29   14   83 1    
    30   15   16 1    
    31   15   84 1    
    32   15   85 1    
    33   16   17 1    
    34   17   18 1    
    35   17   86 1    
    36   17   87 1    
    37   18   19 1    
    38   18   37 1    
    39   18   88 1    
    40   19   20 am   BACKBONE|DICT|INTERRES
    41   19   89 1    
    42   20   21 2    
    43   20   22 1    
    44   22   23 1    
    45   22   24 1    
    46   22   90 1    
    47   23   91 1    
    48   23   92 1    
    49   23   93 1    
    50   24   25 am   BACKBONE|DICT|INTERRES
    51   24   94 1    
    52   25   26 2    
    53   25   27 1    
    54   27   28 1    
    55   27   29 1    
    56   27   95 1    
    57   28   96 1    
    58   28   97 1    
    59   28   98 1    
    60   29   30 am   BACKBONE|DICT|INTERRES
    61   29   99 1    
    62   30   31 2    
    63   30   32 1    
    64   32   33 1    
    65   32   34 1    
    66   32  100 1    
    67   33  101 1    
    68   33  102 1    
    69   33  103 1    
    70   34   35 am   BACKBONE|DICT|INTERRES
    71   34  104 1    
    72   35   36 2    
    73   37   38 2    
    74   37   39 am   BACKBONE|DICT|INTERRES
    75   39   40 1    
    76   39  105 1    
    77   40   41 1    
    78   40   42 1    
    79   40  106 1    
    80   41  107 1    
    81   41  108 1    
    82   41  109 1    
    83   42   43 2    
    84   42   44 am   BACKBONE|DICT|INTERRES
    85   44   45 1    
    86   44  110 1    
    87   45   46 1    
    88   45   47 1    
    89   45  111 1    
    90   46  112 1    
    91   46  113 1    
    92   46  114 1    
    93   47   48 2    
    94   47   49 am   BACKBONE|DICT|INTERRES
    95   49   50 1    
    96   49  115 1    
    97   50   51 1    
    98   50   52 1    
    99   50  116 1    
   100   51  117 1    
   101   51  118 1    
   102   51  119 1    
   103   52   53 2    
   104   52   54 am   BACKBONE|DICT|INTERRES
   105   54   55 1    
   106   54  120 1    
   107   55   56 1    
   108   55   57 1    
   109   55  121 1    
   110   56  122 1    
   111   56  123 1    
   112   56  124 1    
   113   57   58 2    
   114   57   59 am   BACKBONE|DICT|INTERRES
   115   59   60 1    
   116   59  125 1    
   117   60   61 1    
   118   60   62 1    
   119   60  126 1    
   120   61  127 1    
   121   61  128 1    
   122   61  129 1    
   123   62   63 2    
   124   62   64 am   BACKBONE|DICT|INTERRES
   125   64   65 1    
   126   64  130 1    
   127   65   66 1    
   128   65   69 1    
   129   65  131 1    
   130   66   67 am   BACKBONE|DICT|INTERRES
   131   66   68 2    
   132   67  132 1    
   133   67  133 1    
   134   69   70 1    
   135   69  134 1    
   136   69  135 1    
   137   70   71 1    
   138   71  136 1    
   139   71  137 1    
@<TRIPOS>SUBSTRUCTURE
     1 UNK         1 GROUP             0       ****    0 ROOT    
