@<TRIPOS>MOLECULE
3R137
137   139    1
SMALL
USER_CHARGES


@<TRIPOS>ATOM
      1 CA         28.2367   -2.2707    1.9333 C.3       0 UNK        -0.2020 
      2 C          28.6863   -2.2636    0.4805 C.2       0 UNK         0.4855 
      3 O          29.6527   -1.5817    0.1399 O.2       0 UNK        -0.5197 
      4 N          27.9820   -3.0001   -0.3879 N.am      1 UNK        -0.4892 
      5 CA         28.2726   -3.1746   -1.8207 C.3       1 UNK         0.0835 
      6 C6         27.7116   -4.5253   -2.3359 C.3       12 UNK        -0.0855 
      7 S7         28.5208   -5.9230   -1.4685 S.3       12 UNK        -0.2931 
      8 C8         29.5272   -6.7601   -2.7433 C.3       12 UNK         0.0378 
      9 C9         30.1818   -5.8065   -3.7337 C.ar      12 UNK        -0.0802 
     10 C10        31.2092   -4.9431   -3.3362 C.ar      12 UNK        -0.0944 
     11 C11        31.7666   -4.0399   -4.2492 C.ar      12 UNK        -0.0787 
     12 C12        31.3160   -4.0333   -5.5714 C.ar      12 UNK        -0.0862 
     13 C13        30.2684   -4.8669   -5.9663 C.ar      12 UNK        -0.0733 
     14 C14        29.7206   -5.7668   -5.0520 C.ar      12 UNK        -0.0832 
     15 C15        29.6610   -4.7295   -7.3512 C.3       12 UNK         0.0240 
     16 S16        28.1334   -3.7407   -7.2683 S.3       12 UNK        -0.2522 
     17 C17        28.7704   -2.1661   -6.5982 C.3       12 UNK        -0.0967 
     18 CA         27.8325   -0.9917   -6.9483 C.3       5 UNK         0.0660 
     19 N          26.5594   -1.0866   -6.2333 N.am      5 UNK        -0.4015 
     20 C          25.3901   -0.6403   -6.7069 C.2       4 UNK         0.4946 
     21 O          25.2992    0.0570   -7.7199 O.2       4 UNK        -0.5353 
     22 CA         24.1294   -1.0186   -5.9188 C.3       4 UNK         0.0277 
     23 CB         23.7488   -2.4844   -6.1845 C.3       4 UNK        -0.1981 
     24 N          24.3363   -0.8136   -4.4842 N.am      4 UNK        -0.4209 
     25 C          23.5917   -0.0102   -3.7112 C.2       3 UNK         0.4942 
     26 O          22.5454    0.5257   -4.0793 O.2       3 UNK        -0.5208 
     27 CA         24.1164    0.2760   -2.2882 C.3       3 UNK         0.0250 
     28 CB         23.4795   -0.6902   -1.2762 C.3       3 UNK        -0.1990 
     29 N          25.5774    0.2058   -2.1655 N.am      3 UNK        -0.4232 
     30 C          26.4533    0.9167   -2.8914 C.2       2 UNK         0.4993 
     31 O          26.1189    1.7919   -3.6867 O.2       2 UNK        -0.5286 
     32 CA         27.9461    0.5614   -2.7688 C.3       2 UNK         0.0209 
     33 CB         28.6839    1.6179   -1.9321 C.3       2 UNK        -0.1931 
     34 N          28.2335   -0.7640   -2.2120 N.am      2 UNK        -0.4546 
     35 C          27.7967   -1.9554   -2.6436 C.2       1 UNK         0.5154 
     36 O          27.0252   -2.0904   -3.5991 O.2       1 UNK        -0.5181 
     37 C          28.5195    0.3845   -6.8598 C.2       5 UNK         0.5014 
     38 O          29.6600    0.4954   -7.3045 O.2       5 UNK        -0.5248 
     39 N          27.8348    1.4266   -6.3681 N.am      6 UNK        -0.4434 
     40 CA         28.2076    2.8168   -6.6549 C.3       6 UNK         0.0363 
     41 CB         27.6638    3.7525   -5.5663 C.3       6 UNK        -0.1936 
     42 C          27.7082    3.2601   -8.0430 C.2       6 UNK         0.5081 
     43 O          28.2914    4.1768   -8.6206 O.2       6 UNK        -0.5248 
     44 N          26.6487    2.6111   -8.5503 N.am      7 UNK        -0.4718 
     45 CA         26.0971    2.8293   -9.8873 C.3       7 UNK         0.0273 
     46 CB         24.5652    2.9291   -9.7975 C.3       7 UNK        -0.1935 
     47 C          26.5090    1.6971  -10.8380 C.2       7 UNK         0.5018 
     48 O          26.8813    1.9751  -11.9779 O.2       7 UNK        -0.5186 
     49 N          26.4425    0.4444  -10.3600 N.am      8 UNK        -0.4240 
     50 CA         26.7723   -0.7535  -11.1418 C.3       8 UNK         0.0235 
     51 CB         26.0672   -1.9758  -10.5269 C.3       8 UNK        -0.2000 
     52 C          28.2846   -1.0079  -11.3075 C.2       8 UNK         0.4941 
     53 O          28.6561   -1.8399  -12.1367 O.2       8 UNK        -0.5273 
     54 N          29.1271   -0.3052  -10.5404 N.am      9 UNK        -0.4262 
     55 CA         30.5872   -0.3562  -10.6042 C.3       9 UNK         0.0264 
     56 CB         31.1260   -1.6223   -9.8998 C.3       9 UNK        -0.1955 
     57 C          31.1337    0.9692  -10.0467 C.2       9 UNK         0.5031 
     58 O          30.6098    2.0247  -10.4090 O.2       9 UNK        -0.5390 
     59 N          32.1513    0.9055   -9.1782 N.am      10 UNK        -0.4204 
     60 CA         32.7419    2.0547   -8.4898 C.3       10 UNK         0.0237 
     61 CB         33.9263    2.6029   -9.3119 C.3       10 UNK        -0.1985 
     62 C          33.1216    1.6912   -7.0424 C.2       10 UNK         0.4970 
     63 O          34.2032    2.0607   -6.5820 O.2       10 UNK        -0.4914 
     64 N          32.2329    0.9673   -6.3481 N.am      11 UNK        -0.4285 
     65 CA         32.3737    0.6164   -4.9227 C.3       11 UNK         0.1007 
     66 C          32.1121    1.8105   -3.9559 C.2       11 UNK         0.5703 
     67 N          31.4011    2.8528   -4.3749 N.am      11 UNK        -0.7361 
     68 O          32.5799    1.8047   -2.8190 O.2       11 UNK        -0.4986 
     69 C69        31.5039   -0.6207   -4.5691 C.3       12 UNK        -0.0947 
     70 S70        32.0797   -1.5379   -3.0954 S.3       12 UNK        -0.2240 
     71 C71        32.8272   -3.0434   -3.8041 C.3       12 UNK         0.0194 
     72 H72        27.9771   -1.2612    2.2508 H         1 UNK         0.0906 
     73 H73        27.3678   -2.9099    2.0891 H         1 UNK         0.0906 
     74 H74        29.0421   -2.6323    2.5722 H         1 UNK         0.0906 
     75 H75        27.1958   -3.5354   -0.0467 H         1 UNK         0.3140 
     76 H76        29.3574   -3.2032   -1.9485 H         1 UNK         0.1085 
     77 H77        26.6357   -4.5830   -2.1615 H         1 UNK         0.0836 
     78 H78        27.8366   -4.6205   -3.4145 H         1 UNK         0.0836 
     79 H79        30.3003   -7.3501   -2.2492 H         1 UNK         0.0731 
     80 H80        28.8916   -7.4767   -3.2659 H         1 UNK         0.0731 
     81 H81        31.5490   -4.9514   -2.3094 H         1 UNK         0.1312 
     82 H82        31.7432   -3.3413   -6.2830 H         1 UNK         0.1406 
     83 H83        28.9005   -6.4023   -5.3586 H         1 UNK         0.1631 
     84 H84        29.4309   -5.7154   -7.7578 H         1 UNK         0.0717 
     85 H85        30.3637   -4.2638   -8.0440 H         1 UNK         0.0717 
     86 H86        28.9033   -2.2569   -5.5195 H         1 UNK         0.0934 
     87 H87        29.7652   -2.0128   -7.0111 H         1 UNK         0.0934 
     88 H88        27.6180   -1.0845   -8.0124 H         1 UNK         0.0739 
     89 H89        26.5876   -1.6290   -5.3739 H         1 UNK         0.3093 
     90 H90        23.3209   -0.3827   -6.2859 H         1 UNK         0.0818 
     91 H91        22.8149   -2.7444   -5.6861 H         1 UNK         0.0819 
     92 H92        23.6080   -2.6642   -7.2513 H         1 UNK         0.0819 
     93 H93        24.5173   -3.1753   -5.8348 H         1 UNK         0.0819 
     94 H94        25.1732   -1.2164   -4.0777 H         1 UNK         0.3041 
     95 H95        23.8167    1.2940   -2.0307 H         1 UNK         0.0784 
     96 H96        22.3905   -0.6443   -1.3253 H         1 UNK         0.0793 
     97 H97        23.7708   -1.7242   -1.4664 H         1 UNK         0.0793 
     98 H98        23.7658   -0.4417   -0.2541 H         1 UNK         0.0793 
     99 H99        25.9468   -0.4907   -1.5355 H         1 UNK         0.3024 
    100 H100       28.3570    0.5814   -3.7779 H         1 UNK         0.1171 
    101 H101       28.5325    2.6192   -2.3374 H         1 UNK         0.0786 
    102 H102       29.7587    1.4348   -1.9210 H         1 UNK         0.0786 
    103 H103       28.3356    1.6274   -0.8985 H         1 UNK         0.0786 
    104 H104       28.8483   -0.7870   -1.4012 H         1 UNK         0.2977 
    105 H105       26.9200    1.2767   -5.9634 H         1 UNK         0.3127 
    106 H106       29.2954    2.9091   -6.6571 H         1 UNK         0.0770 
    107 H107       26.5751    3.7192   -5.5104 H         1 UNK         0.0814 
    108 H108       27.9477    4.7870   -5.7636 H         1 UNK         0.0814 
    109 H109       28.0616    3.4917   -4.5863 H         1 UNK         0.0814 
    110 H110       26.2221    1.8652   -8.0128 H         1 UNK         0.2983 
    111 H111       26.4716    3.7666  -10.3054 H         1 UNK         0.0947 
    112 H112       24.1262    3.0882  -10.7835 H         1 UNK         0.0806 
    113 H113       24.2611    3.7664   -9.1693 H         1 UNK         0.0806 
    114 H114       24.1202    2.0230   -9.3839 H         1 UNK         0.0806 
    115 H115       26.0635    0.2949   -9.4279 H         1 UNK         0.3000 
    116 H116       26.3687   -0.6178  -12.1478 H         1 UNK         0.0850 
    117 H117       26.2206   -2.8626  -11.1434 H         1 UNK         0.0810 
    118 H118       24.9911   -1.8177  -10.4536 H         1 UNK         0.0810 
    119 H119       26.4374   -2.2122   -9.5308 H         1 UNK         0.0810 
    120 H120       28.7547    0.4190   -9.9415 H         1 UNK         0.3040 
    121 H121       30.8834   -0.3942  -11.6545 H         1 UNK         0.0766 
    122 H122       32.1983   -1.7381  -10.0611 H         1 UNK         0.0812 
    123 H123       30.6532   -2.5254  -10.2858 H         1 UNK         0.0812 
    124 H124       30.9505   -1.5937   -8.8266 H         1 UNK         0.0812 
    125 H125       32.5080   -0.0023   -8.9139 H         1 UNK         0.3205 
    126 H126       31.9938    2.8464   -8.4051 H         1 UNK         0.0754 
    127 H127       34.3576    3.4873   -8.8408 H         1 UNK         0.0769 
    128 H128       33.6107    2.8956  -10.3137 H         1 UNK         0.0769 
    129 H129       34.7211    1.8627   -9.4137 H         1 UNK         0.0769 
    130 H130       31.3362    0.7437   -6.7795 H         1 UNK         0.2981 
    131 H131       33.4168    0.3290   -4.7757 H         1 UNK         0.0541 
    132 H132       31.0343    2.8797   -5.3119 H         1 UNK         0.3459 
    133 H133       31.2530    3.6277   -3.7485 H         1 UNK         0.3459 
    134 H134       31.4938   -1.3040   -5.4143 H         1 UNK         0.0612 
    135 H135       30.4633   -0.3337   -4.4165 H         1 UNK         0.0612 
    136 H136       33.4672   -3.5042   -3.0503 H         1 UNK         0.0624 
    137 H137       33.4800   -2.7722   -4.6353 H         1 UNK         0.0624 
@<TRIPOS>BOND
     1    1    2 1    
     2    1   72 1    
     3    1   73 1    
     4    1   74 1    
     5    2    3 2    
     6    2    4 am   BACKBONE|DICT|INTERRES
     7    4    5 1    
     8    4   75 1    
     9    5    6 1    
    10    5   35 1    
    11    5   76 1    
    12    6    7 1    
    13    6   77 1    
    14    6   78 1    
    15    7    8 1    
    16    8    9 1    
    17    8   79 1    
    18    8   80 1    
    19    9   10 ar   
    20    9   14 ar   
    21   10   11 ar   
    22   10   81 1    
    23   11   12 ar   
    24   11   71 1    
    25   12   13 ar   
    26   12   82 1    
    27   13   14 ar   
    28   13   15 1    
    29   14   83 1    
    30   15   16 1    
    31   15   84 1    
    32   15   85 1    
    33   16   17 1    
    34   17   18 1    
    35   17   86 1    
    36   17   87 1    
    37   18   19 1    
    38   18   37 1    
    39   18   88 1    
    40   19   20 am   BACKBONE|DICT|INTERRES
    41   19   89 1    
    42   20   21 2    
    43   20   22 1    
    44   22   23 1    
    45   22   24 1    
    46   22   90 1    
    47   23   91 1    
    48   23   92 1    
    49   23   93 1    
    50   24   25 am   BACKBONE|DICT|INTERRES
    51   24   94 1    
    52   25   26 2    
    53   25   27 1    
    54   27   28 1    
    55   27   29 1    
    56   27   95 1    
    57   28   96 1    
    58   28   97 1    
    59   28   98 1    
    60   29   30 am   BACKBONE|DICT|INTERRES
    61   29   99 1    
    62   30   31 2    
    63   30   32 1    
    64   32   33 1    
    65   32   34 1    
    66   32  100 1    
    67   33  101 1    
    68   33  102 1    
    69   33  103 1    
    70   34   35 am   BACKBONE|DICT|INTERRES
    71   34  104 1    
    72   35   36 2    
    73   37   38 2    
    74   37   39 am   BACKBONE|DICT|INTERRES
    75   39   40 1    
    76   39  105 1    
    77   40   41 1    
    78   40   42 1    
    79   40  106 1    
    80   41  107 1    
    81   41  108 1    
    82   41  109 1    
    83   42   43 2    
    84   42   44 am   BACKBONE|DICT|INTERRES
    85   44   45 1    
    86   44  110 1    
    87   45   46 1    
    88   45   47 1    
    89   45  111 1    
    90   46  112 1    
    91   46  113 1    
    92   46  114 1    
    93   47   48 2    
    94   47   49 am   BACKBONE|DICT|INTERRES
    95   49   50 1    
    96   49  115 1    
    97   50   51 1    
    98   50   52 1    
    99   50  116 1    
   100   51  117 1    
   101   51  118 1    
   102   51  119 1    
   103   52   53 2    
   104   52   54 am   BACKBONE|DICT|INTERRES
   105   54   55 1    
   106   54  120 1    
   107   55   56 1    
   108   55   57 1    
   109   55  121 1    
   110   56  122 1    
   111   56  123 1    
   112   56  124 1    
   113   57   58 2    
   114   57   59 am   BACKBONE|DICT|INTERRES
   115   59   60 1    
   116   59  125 1    
   117   60   61 1    
   118   60   62 1    
   119   60  126 1    
   120   61  127 1    
   121   61  128 1    
   122   61  129 1    
   123   62   63 2    
   124   62   64 am   BACKBONE|DICT|INTERRES
   125   64   65 1    
   126   64  130 1    
   127   65   66 1    
   128   65   69 1    
   129   65  131 1    
   130   66   67 am   BACKBONE|DICT|INTERRES
   131   66   68 2    
   132   67  132 1    
   133   67  133 1    
   134   69   70 1    
   135   69  134 1    
   136   69  135 1    
   137   70   71 1    
   138   71  136 1    
   139   71  137 1    
@<TRIPOS>SUBSTRUCTURE
     1 UNK         1 GROUP             0       ****    0 ROOT    
