@<TRIPOS>MOLECULE
3R137
137   139    1
SMALL
USER_CHARGES


@<TRIPOS>ATOM
      1 CA         25.8584   -3.1949   -8.9438 C.3       0 UNK        -0.2020 
      2 C          25.7179   -3.3265   -7.4351 C.2       0 UNK         0.4855 
      3 O          25.5208   -2.3223   -6.7532 O.2       0 UNK        -0.5197 
      4 N          25.7875   -4.5594   -6.9110 N.am      1 UNK        -0.4892 
      5 CA         25.7925   -4.9169   -5.4768 C.3       1 UNK         0.0835 
      6 C6         27.0595   -4.4044   -4.7329 C.3       12 UNK        -0.0855 
      7 S7         28.5889   -5.0507   -5.4942 S.3       12 UNK        -0.2931 
      8 C8         29.6511   -5.3623   -4.0463 C.3       12 UNK         0.0378 
      9 C9         30.3248   -4.1018   -3.5128 C.ar      12 UNK        -0.0802 
     10 C10        31.0976   -3.3003   -4.3617 C.ar      12 UNK        -0.0944 
     11 C11        31.7812   -2.1884   -3.8627 C.ar      12 UNK        -0.0787 
     12 C12        31.6996   -1.8861   -2.5011 C.ar      12 UNK        -0.0862 
     13 C13        30.9277   -2.6723   -1.6410 C.ar      12 UNK        -0.0733 
     14 C14        30.2366   -3.7755   -2.1541 C.ar      12 UNK        -0.0832 
     15 C15        30.8785   -2.3516   -0.1519 C.3       12 UNK         0.0240 
     16 S16        29.3945   -1.4033    0.3143 S.3       12 UNK        -0.2522 
     17 C17        29.6587    0.1785   -0.5601 C.3       12 UNK        -0.0967 
     18 CA         28.7848    0.2633   -1.8394 C.3       5 UNK         0.0660 
     19 N          27.3440    0.2089   -1.5638 N.am      5 UNK        -0.4015 
     20 C          26.5996    1.1277   -0.9346 C.2       4 UNK         0.4946 
     21 O          27.0422    2.1850   -0.4814 O.2       4 UNK        -0.5353 
     22 CA         25.0948    0.8088   -0.8189 C.3       4 UNK         0.0277 
     23 CB         24.3404    1.8243    0.0604 C.3       4 UNK        -0.1981 
     24 N          24.4404    0.7396   -2.1300 N.am      4 UNK        -0.4209 
     25 C          24.5666   -0.2649   -3.0061 C.2       3 UNK         0.4942 
     26 O          25.2867   -1.2491   -2.8163 O.2       3 UNK        -0.5208 
     27 CA         23.8114   -0.1144   -4.3345 C.3       3 UNK         0.0250 
     28 CB         24.6956    0.5986   -5.3702 C.3       3 UNK        -0.1990 
     29 N          23.4215   -1.4250   -4.8540 N.am      3 UNK        -0.4232 
     30 C          22.3957   -2.1485   -4.3785 C.2       2 UNK         0.4993 
     31 O          21.6024   -1.7298   -3.5336 O.2       2 UNK        -0.5286 
     32 CA         22.2078   -3.5755   -4.9289 C.3       2 UNK         0.0209 
     33 CB         21.1308   -3.5925   -6.0263 C.3       2 UNK        -0.1931 
     34 N          23.4442   -4.1477   -5.4633 N.am      2 UNK        -0.4546 
     35 C          24.4909   -4.5427   -4.7245 C.2       1 UNK         0.5154 
     36 O          24.4476   -4.6307   -3.4963 O.2       1 UNK        -0.5181 
     37 C          29.1391    1.4506   -2.7608 C.2       5 UNK         0.5014 
     38 O          30.0692    2.2100   -2.4841 O.2       5 UNK        -0.5248 
     39 N          28.3732    1.5693   -3.8509 N.am      6 UNK        -0.4434 
     40 CA         28.5661    2.5128   -4.9491 C.3       6 UNK         0.0363 
     41 CB         27.7479    3.7923   -4.6936 C.3       6 UNK        -0.1936 
     42 C          28.1751    1.7855   -6.2429 C.2       6 UNK         0.5081 
     43 O          27.2892    2.2301   -6.9742 O.2       6 UNK        -0.5248 
     44 N          28.7924    0.6166   -6.4491 N.am      7 UNK        -0.4718 
     45 CA         28.4392   -0.3963   -7.4428 C.3       7 UNK         0.0273 
     46 CB         29.0359   -1.7376   -6.9840 C.3       7 UNK        -0.1935 
     47 C          28.8420   -0.0258   -8.8816 C.2       7 UNK         0.5018 
     48 O          29.6198   -0.7474   -9.5099 O.2       7 UNK        -0.5186 
     49 N          28.2940    1.0902   -9.3800 N.am      8 UNK        -0.4240 
     50 CA         28.4043    1.6039  -10.7497 C.3       8 UNK         0.0235 
     51 CB         27.5169    0.7630  -11.6961 C.3       8 UNK        -0.2000 
     52 C          29.8708    1.7246  -11.2058 C.2       8 UNK         0.4941 
     53 O          30.6136    2.5166  -10.6269 O.2       8 UNK        -0.5273 
     54 N          30.2785    0.9229  -12.1971 N.am      9 UNK        -0.4262 
     55 CA         31.6402    0.8803  -12.7320 C.3       9 UNK         0.0264 
     56 CB         31.6530    0.0091  -13.9991 C.3       9 UNK        -0.1955 
     57 C          32.7089    0.3920  -11.7340 C.2       9 UNK         0.5031 
     58 O          33.8843    0.6992  -11.9408 O.2       9 UNK        -0.5390 
     59 N          32.3145   -0.3612  -10.6948 N.am      10 UNK        -0.4204 
     60 CA         33.2421   -0.9012   -9.6986 C.3       10 UNK         0.0237 
     61 CB         32.6329   -2.1376   -9.0192 C.3       10 UNK        -0.1985 
     62 C          33.6703    0.1401   -8.6530 C.2       10 UNK         0.4970 
     63 O          34.8466    0.1560   -8.2873 O.2       10 UNK        -0.4914 
     64 N          32.7320    0.9745   -8.1838 N.am      11 UNK        -0.4285 
     65 CA         32.9694    1.9470   -7.1025 C.3       11 UNK         0.1007 
     66 C          31.9484    3.1193   -7.0289 C.2       11 UNK         0.5703 
     67 N          31.0747    3.3293   -8.0036 N.am      11 UNK        -0.7361 
     68 O          31.9560    3.8838   -6.0677 O.2       11 UNK        -0.4986 
     69 C69        33.2150    1.2676   -5.7218 C.3       12 UNK        -0.0947 
     70 S70        31.8150    0.2589   -5.1272 S.3       12 UNK        -0.2240 
     71 C71        32.6352   -1.3239   -4.7766 C.3       12 UNK         0.0194 
     72 H72        26.0019   -4.1612   -9.4264 H         1 UNK         0.0906 
     73 H73        24.9654   -2.7336   -9.3644 H         1 UNK         0.0906 
     74 H74        26.7129   -2.5647   -9.1877 H         1 UNK         0.0906 
     75 H75        25.9289   -5.3421   -7.5352 H         1 UNK         0.3140 
     76 H76        25.8204   -6.0074   -5.4458 H         1 UNK         0.1085 
     77 H77        27.0389   -4.7084   -3.6849 H         1 UNK         0.0836 
     78 H78        27.0934   -3.3137   -4.7268 H         1 UNK         0.0836 
     79 H79        30.4318   -6.0649   -4.3405 H         1 UNK         0.0731 
     80 H80        29.0722   -5.8636   -3.2691 H         1 UNK         0.0731 
     81 H81        31.1756   -3.5528   -5.4104 H         1 UNK         0.1312 
     82 H82        32.2437   -1.0356   -2.1136 H         1 UNK         0.1406 
     83 H83        29.6514   -4.3936   -1.4865 H         1 UNK         0.1631 
     84 H84        31.7696   -1.8001    0.1523 H         1 UNK         0.0717 
     85 H85        30.8919   -3.2808    0.4196 H         1 UNK         0.0717 
     86 H86        29.4274    0.9996    0.1202 H         1 UNK         0.0934 
     87 H87        30.7178    0.2826   -0.7993 H         1 UNK         0.0934 
     88 H88        29.0013   -0.6243   -2.4363 H         1 UNK         0.0739 
     89 H89        26.8476   -0.5973   -1.9365 H         1 UNK         0.3093 
     90 H90        25.0104   -0.1687   -0.3381 H         1 UNK         0.0818 
     91 H91        24.3666    2.8281   -0.3659 H         1 UNK         0.0819 
     92 H92        23.2957    1.5404    0.1885 H         1 UNK         0.0819 
     93 H93        24.7819    1.8818    1.0564 H         1 UNK         0.0819 
     94 H94        23.8639    1.5304   -2.3808 H         1 UNK         0.3041 
     95 H95        22.9110    0.4820   -4.1714 H         1 UNK         0.0784 
     96 H96        24.9541    1.6063   -5.0426 H         1 UNK         0.0793 
     97 H97        25.6294    0.0616   -5.5398 H         1 UNK         0.0793 
     98 H98        24.1887    0.6915   -6.3307 H         1 UNK         0.0793 
     99 H99        24.0685   -1.8535   -5.5110 H         1 UNK         0.3024 
    100 H100       21.8682   -4.2017   -4.1005 H         1 UNK         0.1171 
    101 H101       20.9381   -4.6062   -6.3781 H         1 UNK         0.0786 
    102 H102       20.1861   -3.1963   -5.6512 H         1 UNK         0.0786 
    103 H103       21.4200   -2.9864   -6.8859 H         1 UNK         0.0786 
    104 H104       23.5712   -4.1120   -6.4644 H         1 UNK         0.2977 
    105 H105       27.6412    0.8880   -3.9948 H         1 UNK         0.3127 
    106 H106       29.6220    2.7785   -5.0284 H         1 UNK         0.0770 
    107 H107       26.6813    3.5801   -4.6126 H         1 UNK         0.0814 
    108 H108       27.8806    4.5075   -5.5062 H         1 UNK         0.0814 
    109 H109       28.0624    4.2841   -3.7730 H         1 UNK         0.0814 
    110 H110       29.5464    0.3677   -5.8213 H         1 UNK         0.2983 
    111 H111       27.3526   -0.5024   -7.4455 H         1 UNK         0.0947 
    112 H112       28.8101   -2.5396   -7.6876 H         1 UNK         0.0806 
    113 H113       28.6291   -2.0340   -6.0181 H         1 UNK         0.0806 
    114 H114       30.1184   -1.6847   -6.8806 H         1 UNK         0.0806 
    115 H115       27.7419    1.6489   -8.7328 H         1 UNK         0.3000 
    116 H116       28.0069    2.6198  -10.7350 H         1 UNK         0.0850 
    117 H117       27.5449    1.1499  -12.7158 H         1 UNK         0.0810 
    118 H118       26.4749    0.7925  -11.3770 H         1 UNK         0.0810 
    119 H119       27.8175   -0.2851  -11.7240 H         1 UNK         0.0810 
    120 H120       29.6115    0.2776  -12.5950 H         1 UNK         0.3040 
    121 H121       31.9123    1.8988  -13.0175 H         1 UNK         0.0766 
    122 H122       32.6484   -0.0173  -14.4451 H         1 UNK         0.0812 
    123 H123       30.9724    0.3978  -14.7568 H         1 UNK         0.0812 
    124 H124       31.3659   -1.0209  -13.7836 H         1 UNK         0.0812 
    125 H125       31.3252   -0.5492  -10.5536 H         1 UNK         0.3205 
    126 H126       34.1447   -1.2329  -10.2170 H         1 UNK         0.0754 
    127 H127       31.7402   -1.8871   -8.4500 H         1 UNK         0.0769 
    128 H128       33.3426   -2.5898   -8.3251 H         1 UNK         0.0769 
    129 H129       32.3615   -2.9000   -9.7495 H         1 UNK         0.0769 
    130 H130       31.7873    0.9142   -8.5333 H         1 UNK         0.2981 
    131 H131       33.8983    2.4581   -7.3616 H         1 UNK         0.0541 
    132 H132       31.0871    2.8304   -8.8886 H         1 UNK         0.3459 
    133 H133       30.4504    4.1131   -7.9082 H         1 UNK         0.3459 
    134 H134       33.4405    2.0140   -4.9584 H         1 UNK         0.0612 
    135 H135       34.1088    0.6457   -5.7744 H         1 UNK         0.0612 
    136 H136       32.8473   -1.8341   -5.7174 H         1 UNK         0.0624 
    137 H137       33.5969   -1.1416   -4.2947 H         1 UNK         0.0624 
@<TRIPOS>BOND
     1    1    2 1    
     2    1   72 1    
     3    1   73 1    
     4    1   74 1    
     5    2    3 2    
     6    2    4 am   BACKBONE|DICT|INTERRES
     7    4    5 1    
     8    4   75 1    
     9    5    6 1    
    10    5   35 1    
    11    5   76 1    
    12    6    7 1    
    13    6   77 1    
    14    6   78 1    
    15    7    8 1    
    16    8    9 1    
    17    8   79 1    
    18    8   80 1    
    19    9   10 ar   
    20    9   14 ar   
    21   10   11 ar   
    22   10   81 1    
    23   11   12 ar   
    24   11   71 1    
    25   12   13 ar   
    26   12   82 1    
    27   13   14 ar   
    28   13   15 1    
    29   14   83 1    
    30   15   16 1    
    31   15   84 1    
    32   15   85 1    
    33   16   17 1    
    34   17   18 1    
    35   17   86 1    
    36   17   87 1    
    37   18   19 1    
    38   18   37 1    
    39   18   88 1    
    40   19   20 am   BACKBONE|DICT|INTERRES
    41   19   89 1    
    42   20   21 2    
    43   20   22 1    
    44   22   23 1    
    45   22   24 1    
    46   22   90 1    
    47   23   91 1    
    48   23   92 1    
    49   23   93 1    
    50   24   25 am   BACKBONE|DICT|INTERRES
    51   24   94 1    
    52   25   26 2    
    53   25   27 1    
    54   27   28 1    
    55   27   29 1    
    56   27   95 1    
    57   28   96 1    
    58   28   97 1    
    59   28   98 1    
    60   29   30 am   BACKBONE|DICT|INTERRES
    61   29   99 1    
    62   30   31 2    
    63   30   32 1    
    64   32   33 1    
    65   32   34 1    
    66   32  100 1    
    67   33  101 1    
    68   33  102 1    
    69   33  103 1    
    70   34   35 am   BACKBONE|DICT|INTERRES
    71   34  104 1    
    72   35   36 2    
    73   37   38 2    
    74   37   39 am   BACKBONE|DICT|INTERRES
    75   39   40 1    
    76   39  105 1    
    77   40   41 1    
    78   40   42 1    
    79   40  106 1    
    80   41  107 1    
    81   41  108 1    
    82   41  109 1    
    83   42   43 2    
    84   42   44 am   BACKBONE|DICT|INTERRES
    85   44   45 1    
    86   44  110 1    
    87   45   46 1    
    88   45   47 1    
    89   45  111 1    
    90   46  112 1    
    91   46  113 1    
    92   46  114 1    
    93   47   48 2    
    94   47   49 am   BACKBONE|DICT|INTERRES
    95   49   50 1    
    96   49  115 1    
    97   50   51 1    
    98   50   52 1    
    99   50  116 1    
   100   51  117 1    
   101   51  118 1    
   102   51  119 1    
   103   52   53 2    
   104   52   54 am   BACKBONE|DICT|INTERRES
   105   54   55 1    
   106   54  120 1    
   107   55   56 1    
   108   55   57 1    
   109   55  121 1    
   110   56  122 1    
   111   56  123 1    
   112   56  124 1    
   113   57   58 2    
   114   57   59 am   BACKBONE|DICT|INTERRES
   115   59   60 1    
   116   59  125 1    
   117   60   61 1    
   118   60   62 1    
   119   60  126 1    
   120   61  127 1    
   121   61  128 1    
   122   61  129 1    
   123   62   63 2    
   124   62   64 am   BACKBONE|DICT|INTERRES
   125   64   65 1    
   126   64  130 1    
   127   65   66 1    
   128   65   69 1    
   129   65  131 1    
   130   66   67 am   BACKBONE|DICT|INTERRES
   131   66   68 2    
   132   67  132 1    
   133   67  133 1    
   134   69   70 1    
   135   69  134 1    
   136   69  135 1    
   137   70   71 1    
   138   71  136 1    
   139   71  137 1    
@<TRIPOS>SUBSTRUCTURE
     1 UNK         1 GROUP             0       ****    0 ROOT    
