@<TRIPOS>MOLECULE
3R137
137   139    1
SMALL
USER_CHARGES


@<TRIPOS>ATOM
      1 CA         28.9149   -1.2779    2.4132 C.3       0 UNK        -0.2020 
      2 C          27.4620   -1.5062    2.8214 C.2       0 UNK         0.4855 
      3 O          27.1088   -1.2450    3.9699 O.2       0 UNK        -0.5197 
      4 N          26.5846   -1.9813    1.9306 N.am      1 UNK        -0.4892 
      5 CA         26.8171   -2.3065    0.5242 C.3       1 UNK         0.0835 
      6 C6         27.4494   -3.7127    0.3438 C.3       12 UNK        -0.0855 
      7 S7         28.2389   -3.8988   -1.2884 S.3       12 UNK        -0.2931 
      8 C8         29.9541   -3.4185   -0.9102 C.3       12 UNK         0.0378 
      9 C9         30.7919   -3.1816   -2.1622 C.ar      12 UNK        -0.0802 
     10 C10        31.6807   -2.1026   -2.2064 C.ar      12 UNK        -0.0944 
     11 C11        32.4955   -1.8928   -3.3236 C.ar      12 UNK        -0.0787 
     12 C12        32.4122   -2.7750   -4.4050 C.ar      12 UNK        -0.0862 
     13 C13        31.4916   -3.8255   -4.3976 C.ar      12 UNK        -0.0733 
     14 C14        30.7044   -4.0394   -3.2645 C.ar      12 UNK        -0.0832 
     15 C15        31.3401   -4.7242   -5.6159 C.3       12 UNK         0.0240 
     16 S16        30.5715   -3.8500   -7.0193 S.3       12 UNK        -0.2522 
     17 C17        28.8872   -3.4859   -6.4039 C.3       12 UNK        -0.0967 
     18 CA         28.2269   -2.3349   -7.2062 C.3       5 UNK         0.0660 
     19 N          26.7667   -2.3399   -7.1121 N.am      5 UNK        -0.4015 
     20 C          25.9499   -2.3452   -8.1758 C.2       4 UNK         0.4946 
     21 O          26.3311   -2.4901   -9.3378 O.2       4 UNK        -0.5353 
     22 CA         24.4486   -2.1151   -7.9186 C.3       4 UNK         0.0277 
     23 CB         23.7229   -3.4596   -7.7495 C.3       4 UNK        -0.1981 
     24 N          24.1533   -1.2588   -6.7661 N.am      4 UNK        -0.4209 
     25 C          24.6207   -0.0175   -6.5669 C.2       3 UNK         0.4942 
     26 O          25.3622    0.5739   -7.3496 O.2       3 UNK        -0.5208 
     27 CA         24.2522    0.6675   -5.2424 C.3       3 UNK         0.0250 
     28 CB         23.0182    1.5637   -5.4321 C.3       3 UNK        -0.1990 
     29 N          24.0136   -0.2576   -4.1301 N.am      3 UNK        -0.4232 
     30 C          24.8900   -1.1546   -3.6586 C.2       2 UNK         0.4993 
     31 O          26.0057   -1.3665   -4.1500 O.2       2 UNK        -0.5286 
     32 CA         24.4186   -1.9847   -2.4643 C.3       2 UNK         0.0209 
     33 CB         23.9186   -3.3650   -2.9236 C.3       2 UNK        -0.1931 
     34 N          25.5451   -2.1463   -1.5570 N.am      2 UNK        -0.4546 
     35 C          25.4770   -2.1660   -0.2232 C.2       1 UNK         0.5154 
     36 O          24.4211   -2.0841    0.4131 O.2       1 UNK        -0.5181 
     37 C          28.7700   -0.9545   -6.7985 C.2       5 UNK         0.5014 
     38 O          29.5660   -0.3792   -7.5417 O.2       5 UNK        -0.5248 
     39 N          28.3357   -0.4369   -5.6398 N.am      6 UNK        -0.4434 
     40 CA         28.9329    0.7360   -4.9968 C.3       6 UNK         0.0363 
     41 CB         28.3898    0.8559   -3.5638 C.3       6 UNK        -0.1936 
     42 C          28.7600    2.0661   -5.7523 C.2       6 UNK         0.5081 
     43 O          29.5965    2.9521   -5.5756 O.2       6 UNK        -0.5248 
     44 N          27.6966    2.2007   -6.5567 N.am      7 UNK        -0.4718 
     45 CA         27.3659    3.4336   -7.2767 C.3       7 UNK         0.0273 
     46 CB         26.0356    3.9980   -6.7503 C.3       7 UNK        -0.1935 
     47 C          27.3012    3.2078   -8.7911 C.2       7 UNK         0.5018 
     48 O          27.9242    3.9650   -9.5343 O.2       7 UNK        -0.5186 
     49 N          26.5587    2.1801   -9.2260 N.am      8 UNK        -0.4240 
     50 CA         26.3041    1.8722  -10.6358 C.3       8 UNK         0.0235 
     51 CB         25.1693    0.8417  -10.7456 C.3       8 UNK        -0.2000 
     52 C          27.5597    1.3927  -11.3777 C.2       8 UNK         0.4941 
     53 O          27.8419    1.8891  -12.4688 O.2       8 UNK        -0.5273 
     54 N          28.3037    0.4643  -10.7608 N.am      9 UNK        -0.4262 
     55 CA         29.6046    0.0024  -11.2551 C.3       9 UNK         0.0264 
     56 CB         29.7981   -1.4782  -10.8856 C.3       9 UNK        -0.1955 
     57 C          30.7689    0.8468  -10.7074 C.2       9 UNK         0.5031 
     58 O          31.8944    0.6764  -11.1769 O.2       9 UNK        -0.5390 
     59 N          30.4974    1.7019   -9.7075 N.am      10 UNK        -0.4204 
     60 CA         31.4463    2.5322   -8.9534 C.3       10 UNK         0.0237 
     61 CB         31.9616    3.6916   -9.8312 C.3       10 UNK        -0.1985 
     62 C          32.5805    1.7006   -8.3195 C.2       10 UNK         0.4970 
     63 O          33.7472    2.0912   -8.3891 O.2       10 UNK        -0.4914 
     64 N          32.2038    0.5447   -7.7586 N.am      11 UNK        -0.4285 
     65 CA         33.0743   -0.5202   -7.2415 C.3       11 UNK         0.1007 
     66 C          33.8658   -1.3114   -8.3279 C.2       11 UNK         0.5703 
     67 N          33.6564   -1.0942   -9.6211 N.am      11 UNK        -0.7361 
     68 O          34.6690   -2.1783   -7.9912 O.2       11 UNK        -0.4986 
     69 C69        33.9827   -0.0709   -6.0587 C.3       12 UNK        -0.0947 
     70 S70        33.0458    0.5217   -4.6074 S.3       12 UNK        -0.2240 
     71 C71        33.4735   -0.7246   -3.3452 C.3       12 UNK         0.0194 
     72 H72        28.9862   -0.5897    1.5719 H         1 UNK         0.0906 
     73 H73        29.4764   -0.8415    3.2392 H         1 UNK         0.0906 
     74 H74        29.4002   -2.2156    2.1482 H         1 UNK         0.0906 
     75 H75        25.6082   -2.0689    2.1896 H         1 UNK         0.3140 
     76 H76        27.4813   -1.5487    0.1046 H         1 UNK         0.1085 
     77 H77        28.1978   -3.9101    1.1116 H         1 UNK         0.0836 
     78 H78        26.7000   -4.4973    0.4671 H         1 UNK         0.0836 
     79 H79        29.9366   -2.5156   -0.2984 H         1 UNK         0.0731 
     80 H80        30.4232   -4.1983   -0.3088 H         1 UNK         0.0731 
     81 H81        31.7504   -1.4316   -1.3610 H         1 UNK         0.1312 
     82 H82        33.0500   -2.6381   -5.2647 H         1 UNK         0.1406 
     83 H83        30.0124   -4.8703   -3.2455 H         1 UNK         0.1631 
     84 H84        30.7491   -5.6105   -5.3798 H         1 UNK         0.0717 
     85 H85        32.3239   -5.0835   -5.9209 H         1 UNK         0.0717 
     86 H86        28.3013   -4.3999   -6.5131 H         1 UNK         0.0934 
     87 H87        28.9040   -3.2658   -5.3351 H         1 UNK         0.0934 
     88 H88        28.5095   -2.4777   -8.2500 H         1 UNK         0.0739 
     89 H89        26.3651   -2.1939   -6.1939 H         1 UNK         0.3093 
     90 H90        24.0430   -1.6160   -8.8009 H         1 UNK         0.0818 
     91 H91        22.6437   -3.3232   -7.6773 H         1 UNK         0.0819 
     92 H92        23.9071   -4.1126   -8.6041 H         1 UNK         0.0819 
     93 H93        24.0562   -3.9899   -6.8565 H         1 UNK         0.0819 
     94 H94        23.5513   -1.6509   -6.0574 H         1 UNK         0.3041 
     95 H95        25.0967    1.3014   -4.9640 H         1 UNK         0.0784 
     96 H96        23.1562    2.2569   -6.2628 H         1 UNK         0.0793 
     97 H97        22.1228    0.9787   -5.6460 H         1 UNK         0.0793 
     98 H98        22.8234    2.1640   -4.5431 H         1 UNK         0.0793 
     99 H99        23.1180   -0.1718   -3.6703 H         1 UNK         0.3024 
    100 H100       23.6089   -1.4543   -1.9570 H         1 UNK         0.1171 
    101 H101       23.0752   -3.2704   -3.6088 H         1 UNK         0.0786 
    102 H102       23.5824   -3.9647   -2.0775 H         1 UNK         0.0786 
    103 H103       24.7000   -3.9253   -3.4393 H         1 UNK         0.0786 
    104 H104       26.4476   -2.2194   -2.0125 H         1 UNK         0.2977 
    105 H105       27.6282   -0.9241   -5.0963 H         1 UNK         0.3127 
    106 H106       30.0069    0.5496   -4.9294 H         1 UNK         0.0770 
    107 H107       27.3145    1.0366   -3.5543 H         1 UNK         0.0814 
    108 H108       28.8647    1.6832   -3.0347 H         1 UNK         0.0814 
    109 H109       28.5848   -0.0497   -2.9885 H         1 UNK         0.0814 
    110 H110       27.0646    1.4169   -6.6796 H         1 UNK         0.2983 
    111 H111       28.1320    4.1937   -7.1075 H         1 UNK         0.0947 
    112 H112       25.7832    4.9330   -7.2524 H         1 UNK         0.0806 
    113 H113       26.0907    4.2085   -5.6821 H         1 UNK         0.0806 
    114 H114       25.2081    3.3084   -6.9129 H         1 UNK         0.0806 
    115 H115       26.0745    1.5997   -8.5402 H         1 UNK         0.3000 
    116 H116       25.9684    2.7927  -11.1187 H         1 UNK         0.0850 
    117 H117       24.9342    0.6290  -11.7893 H         1 UNK         0.0810 
    118 H118       24.2561    1.2050  -10.2738 H         1 UNK         0.0810 
    119 H119       25.4354   -0.1028  -10.2725 H         1 UNK         0.0810 
    120 H120       27.9860    0.0858   -9.8792 H         1 UNK         0.3040 
    121 H121       29.6277    0.0784  -12.3444 H         1 UNK         0.0766 
    122 H122       30.6696   -1.8910  -11.3952 H         1 UNK         0.0812 
    123 H123       28.9370   -2.0817  -11.1738 H         1 UNK         0.0812 
    124 H124       29.9645   -1.6131   -9.8179 H         1 UNK         0.0812 
    125 H125       29.5402    1.7412   -9.3905 H         1 UNK         0.3205 
    126 H126       30.8861    2.9672   -8.1243 H         1 UNK         0.0754 
    127 H127       32.5847    4.3744   -9.2523 H         1 UNK         0.0769 
    128 H128       31.1352    4.2744  -10.2387 H         1 UNK         0.0769 
    129 H129       32.5618    3.3300  -10.6669 H         1 UNK         0.0769 
    130 H130       31.2131    0.3061   -7.7606 H         1 UNK         0.2981 
    131 H131       32.3680   -1.2518   -6.8527 H         1 UNK         0.0541 
    132 H132       34.1767   -1.6352  -10.2924 H         1 UNK         0.3459 
    133 H133       33.0114   -0.3830   -9.9485 H         1 UNK         0.3459 
    134 H134       34.6608    0.7229   -6.3728 H         1 UNK         0.0612 
    135 H135       34.6306   -0.8888   -5.7426 H         1 UNK         0.0612 
    136 H136       34.4889   -1.0931   -3.4940 H         1 UNK         0.0624 
    137 H137       33.4807   -0.2239   -2.3759 H         1 UNK         0.0624 
@<TRIPOS>BOND
     1    1    2 1    
     2    1   72 1    
     3    1   73 1    
     4    1   74 1    
     5    2    3 2    
     6    2    4 am   BACKBONE|DICT|INTERRES
     7    4    5 1    
     8    4   75 1    
     9    5    6 1    
    10    5   35 1    
    11    5   76 1    
    12    6    7 1    
    13    6   77 1    
    14    6   78 1    
    15    7    8 1    
    16    8    9 1    
    17    8   79 1    
    18    8   80 1    
    19    9   10 ar   
    20    9   14 ar   
    21   10   11 ar   
    22   10   81 1    
    23   11   12 ar   
    24   11   71 1    
    25   12   13 ar   
    26   12   82 1    
    27   13   14 ar   
    28   13   15 1    
    29   14   83 1    
    30   15   16 1    
    31   15   84 1    
    32   15   85 1    
    33   16   17 1    
    34   17   18 1    
    35   17   86 1    
    36   17   87 1    
    37   18   19 1    
    38   18   37 1    
    39   18   88 1    
    40   19   20 am   BACKBONE|DICT|INTERRES
    41   19   89 1    
    42   20   21 2    
    43   20   22 1    
    44   22   23 1    
    45   22   24 1    
    46   22   90 1    
    47   23   91 1    
    48   23   92 1    
    49   23   93 1    
    50   24   25 am   BACKBONE|DICT|INTERRES
    51   24   94 1    
    52   25   26 2    
    53   25   27 1    
    54   27   28 1    
    55   27   29 1    
    56   27   95 1    
    57   28   96 1    
    58   28   97 1    
    59   28   98 1    
    60   29   30 am   BACKBONE|DICT|INTERRES
    61   29   99 1    
    62   30   31 2    
    63   30   32 1    
    64   32   33 1    
    65   32   34 1    
    66   32  100 1    
    67   33  101 1    
    68   33  102 1    
    69   33  103 1    
    70   34   35 am   BACKBONE|DICT|INTERRES
    71   34  104 1    
    72   35   36 2    
    73   37   38 2    
    74   37   39 am   BACKBONE|DICT|INTERRES
    75   39   40 1    
    76   39  105 1    
    77   40   41 1    
    78   40   42 1    
    79   40  106 1    
    80   41  107 1    
    81   41  108 1    
    82   41  109 1    
    83   42   43 2    
    84   42   44 am   BACKBONE|DICT|INTERRES
    85   44   45 1    
    86   44  110 1    
    87   45   46 1    
    88   45   47 1    
    89   45  111 1    
    90   46  112 1    
    91   46  113 1    
    92   46  114 1    
    93   47   48 2    
    94   47   49 am   BACKBONE|DICT|INTERRES
    95   49   50 1    
    96   49  115 1    
    97   50   51 1    
    98   50   52 1    
    99   50  116 1    
   100   51  117 1    
   101   51  118 1    
   102   51  119 1    
   103   52   53 2    
   104   52   54 am   BACKBONE|DICT|INTERRES
   105   54   55 1    
   106   54  120 1    
   107   55   56 1    
   108   55   57 1    
   109   55  121 1    
   110   56  122 1    
   111   56  123 1    
   112   56  124 1    
   113   57   58 2    
   114   57   59 am   BACKBONE|DICT|INTERRES
   115   59   60 1    
   116   59  125 1    
   117   60   61 1    
   118   60   62 1    
   119   60  126 1    
   120   61  127 1    
   121   61  128 1    
   122   61  129 1    
   123   62   63 2    
   124   62   64 am   BACKBONE|DICT|INTERRES
   125   64   65 1    
   126   64  130 1    
   127   65   66 1    
   128   65   69 1    
   129   65  131 1    
   130   66   67 am   BACKBONE|DICT|INTERRES
   131   66   68 2    
   132   67  132 1    
   133   67  133 1    
   134   69   70 1    
   135   69  134 1    
   136   69  135 1    
   137   70   71 1    
   138   71  136 1    
   139   71  137 1    
@<TRIPOS>SUBSTRUCTURE
     1 UNK         1 GROUP             0       ****    0 ROOT    
