@<TRIPOS>MOLECULE
3R137
137   139    1
SMALL
USER_CHARGES


@<TRIPOS>ATOM
      1 CA         24.0978   -5.6707   -2.6738 C.3       0 UNK        -0.2020 
      2 C          24.9121   -4.7024   -1.8299 C.2       0 UNK         0.4855 
      3 O          24.3420   -3.8389   -1.1620 O.2       0 UNK        -0.5197 
      4 N          26.2445   -4.8319   -1.8647 N.am      1 UNK        -0.4892 
      5 CA         27.2082   -3.9760   -1.1644 C.3       1 UNK         0.0835 
      6 C6         28.6375   -4.5445   -1.3179 C.3       12 UNK        -0.0855 
      7 S7         29.8606   -3.7255   -0.2396 S.3       12 UNK        -0.2931 
      8 C8         31.3671   -3.8355   -1.2590 C.3       12 UNK         0.0378 
      9 C9         31.2867   -2.9602   -2.5021 C.ar      12 UNK        -0.0802 
     10 C10        31.0778   -3.5328   -3.7600 C.ar      12 UNK        -0.0944 
     11 C11        31.0160   -2.7324   -4.9039 C.ar      12 UNK        -0.0787 
     12 C12        31.1675   -1.3483   -4.7819 C.ar      12 UNK        -0.0862 
     13 C13        31.3592   -0.7581   -3.5269 C.ar      12 UNK        -0.0733 
     14 C14        31.4271   -1.5745   -2.3936 C.ar      12 UNK        -0.0832 
     15 C15        31.4902    0.7552   -3.3624 C.3       12 UNK         0.0240 
     16 S16        30.3651    1.7450   -4.4087 S.3       12 UNK        -0.2522 
     17 C17        28.7361    0.9678   -4.1243 C.3       12 UNK        -0.0967 
     18 CA         28.1099    0.4853   -5.4603 C.3       5 UNK         0.0660 
     19 N          27.3718   -0.7768   -5.3061 N.am      5 UNK        -0.4015 
     20 C          26.8115   -1.4742   -6.3084 C.2       4 UNK         0.4946 
     21 O          26.8945   -1.1559   -7.4939 O.2       4 UNK        -0.5353 
     22 CA         25.9547   -2.6897   -5.9201 C.3       4 UNK         0.0277 
     23 CB         26.8213   -3.9281   -5.6360 C.3       4 UNK        -0.1981 
     24 N          25.1185   -2.3724   -4.7609 N.am      4 UNK        -0.4209 
     25 C          23.9493   -1.7180   -4.8428 C.2       3 UNK         0.4942 
     26 O          23.3830   -1.4704   -5.9070 O.2       3 UNK        -0.5208 
     27 CA         23.3038   -1.2282   -3.5327 C.3       3 UNK         0.0250 
     28 CB         22.1271   -2.1300   -3.1272 C.3       3 UNK        -0.1990 
     29 N          24.2556   -1.1203   -2.4228 N.am      3 UNK        -0.4232 
     30 C          25.1850   -0.1563   -2.3275 C.2       2 UNK         0.4993 
     31 O          25.3055    0.7528   -3.1472 O.2       2 UNK        -0.5286 
     32 CA         26.1949   -0.2549   -1.1692 C.3       2 UNK         0.0209 
     33 CB         25.6647    0.4788    0.0722 C.3       2 UNK        -0.1931 
     34 N          26.5415   -1.6348   -0.8144 N.am      2 UNK        -0.4546 
     35 C          27.0865   -2.5193   -1.6610 C.2       1 UNK         0.5154 
     36 O          27.3986   -2.2384   -2.8203 O.2       1 UNK        -0.5181 
     37 C          27.2668    1.6020   -6.1177 C.2       5 UNK         0.5014 
     38 O          27.7987    2.3869   -6.9055 O.2       5 UNK        -0.5248 
     39 N          25.9550    1.6166   -5.8312 N.am      6 UNK        -0.4434 
     40 CA         24.9372    2.5006   -6.4132 C.3       6 UNK         0.0363 
     41 CB         23.5813    2.2168   -5.7470 C.3       6 UNK        -0.1936 
     42 C          24.8046    2.4447   -7.9505 C.2       6 UNK         0.5081 
     43 O          24.1786    3.3376   -8.5220 O.2       6 UNK        -0.5248 
     44 N          25.4241    1.4511   -8.6075 N.am      7 UNK        -0.4718 
     45 CA         25.6344    1.4116  -10.0601 C.3       7 UNK         0.0273 
     46 CB         26.0728   -0.0059  -10.4634 C.3       7 UNK        -0.1935 
     47 C          26.6522    2.4578  -10.5708 C.2       7 UNK         0.5018 
     48 O          26.8041    2.5885  -11.7859 O.2       7 UNK        -0.5186 
     49 N          27.3197    3.1727   -9.6504 N.am      8 UNK        -0.4240 
     50 CA         28.3238    4.2197   -9.8598 C.3       8 UNK         0.0235 
     51 CB         27.7840    5.3782  -10.7274 C.3       8 UNK        -0.2000 
     52 C          29.6638    3.6488  -10.3504 C.2       8 UNK         0.4941 
     53 O          30.2989    4.2270  -11.2349 O.2       8 UNK        -0.5273 
     54 N          30.0810    2.5327   -9.7432 N.am      9 UNK        -0.4262 
     55 CA         31.3767    1.8991   -9.9474 C.3       9 UNK         0.0264 
     56 CB         31.2945    0.8778  -11.0957 C.3       9 UNK        -0.1955 
     57 C          31.7694    1.2244   -8.6331 C.2       9 UNK         0.5031 
     58 O          30.9715    0.4600   -8.0866 O.2       9 UNK        -0.5390 
     59 N          32.9966    1.4762   -8.1629 N.am      10 UNK        -0.4204 
     60 CA         33.5525    0.9311   -6.9185 C.3       10 UNK         0.0237 
     61 CB         34.6310    1.8943   -6.3877 C.3       10 UNK        -0.1985 
     62 C          34.0707   -0.5147   -7.0756 C.2       10 UNK         0.4970 
     63 O          35.1448   -0.8389   -6.5670 O.2       10 UNK        -0.4914 
     64 N          33.3064   -1.3498   -7.7918 N.am      11 UNK        -0.4285 
     65 CA         33.5853   -2.7646   -8.0927 C.3       11 UNK         0.1007 
     66 C          34.8407   -3.0276   -8.9830 C.2       11 UNK         0.5703 
     67 N          35.4162   -2.0224   -9.6326 N.am      11 UNK        -0.7361 
     68 O          35.2765   -4.1673   -9.1293 O.2       11 UNK        -0.4986 
     69 C69        33.5154   -3.6570   -6.8121 C.3       12 UNK        -0.0947 
     70 S70        31.9751   -4.6267   -6.7274 S.3       12 UNK        -0.2240 
     71 C71        30.7519   -3.3552   -6.2683 C.3       12 UNK         0.0194 
     72 H72        23.7335   -5.1729   -3.5719 H         1 UNK         0.0906 
     73 H73        24.6861   -6.5358   -2.9789 H         1 UNK         0.0906 
     74 H74        23.2381   -6.0311   -2.1095 H         1 UNK         0.0906 
     75 H75        26.6493   -5.5512   -2.4470 H         1 UNK         0.3140 
     76 H76        26.9496   -4.0038   -0.1035 H         1 UNK         0.1085 
     77 H77        28.6447   -5.6047   -1.0594 H         1 UNK         0.0836 
     78 H78        28.9491   -4.4916   -2.3611 H         1 UNK         0.0836 
     79 H79        31.5455   -4.8778   -1.5287 H         1 UNK         0.0731 
     80 H80        32.2233   -3.5273   -0.6570 H         1 UNK         0.0731 
     81 H81        30.9607   -4.6038   -3.8527 H         1 UNK         0.1312 
     82 H82        31.1088   -0.7274   -5.6643 H         1 UNK         0.1406 
     83 H83        31.5789   -1.1333   -1.4176 H         1 UNK         0.1631 
     84 H84        32.5181    1.0432   -3.5855 H         1 UNK         0.0717 
     85 H85        31.3104    1.0383   -2.3241 H         1 UNK         0.0717 
     86 H86        28.8583    0.1312   -3.4355 H         1 UNK         0.0934 
     87 H87        28.0880    1.6721   -3.5982 H         1 UNK         0.0934 
     88 H88        28.9131    0.2538   -6.1634 H         1 UNK         0.0739 
     89 H89        27.3139   -1.1592   -4.3657 H         1 UNK         0.3093 
     90 H90        25.3089   -2.9292   -6.7681 H         1 UNK         0.0818 
     91 H91        26.2124   -4.7728   -5.3142 H         1 UNK         0.0819 
     92 H92        27.3504   -4.2379   -6.5378 H         1 UNK         0.0819 
     93 H93        27.5733   -3.7447   -4.8690 H         1 UNK         0.0819 
     94 H94        25.5468   -2.4967   -3.8525 H         1 UNK         0.3041 
     95 H95        22.9026   -0.2310   -3.7274 H         1 UNK         0.0784 
     96 H96        21.3729   -2.1615   -3.9148 H         1 UNK         0.0793 
     97 H97        22.4425   -3.1556   -2.9415 H         1 UNK         0.0793 
     98 H98        21.6372   -1.7616   -2.2257 H         1 UNK         0.0793 
     99 H99        24.2479   -1.8717   -1.7390 H         1 UNK         0.3024 
    100 H100       27.1112    0.2416   -1.4955 H         1 UNK         0.1171 
    101 H101       25.4186    1.5154   -0.1634 H         1 UNK         0.0786 
    102 H102       26.4077    0.4979    0.8698 H         1 UNK         0.0786 
    103 H103       24.7611    0.0102    0.4643 H         1 UNK         0.0786 
    104 H104       26.2716   -1.9468    0.1078 H         1 UNK         0.2977 
    105 H105       25.6359    1.0075   -5.0835 H         1 UNK         0.3127 
    106 H106       25.2289    3.5224   -6.1631 H         1 UNK         0.0770 
    107 H107       23.2334    1.2065   -5.9609 H         1 UNK         0.0814 
    108 H108       22.8162    2.9059   -6.1074 H         1 UNK         0.0814 
    109 H109       23.6347    2.3347   -4.6647 H         1 UNK         0.0814 
    110 H110       25.9032    0.7374   -8.0692 H         1 UNK         0.2983 
    111 H111       24.6807    1.6269  -10.5466 H         1 UNK         0.0947 
    112 H112       26.1465   -0.0995  -11.5477 H         1 UNK         0.0806 
    113 H113       25.3604   -0.7568  -10.1211 H         1 UNK         0.0806 
    114 H114       27.0500   -0.2567  -10.0487 H         1 UNK         0.0806 
    115 H115       27.1775    2.9193   -8.6760 H         1 UNK         0.3000 
    116 H116       28.5254    4.6313   -8.8695 H         1 UNK         0.0850 
    117 H117       28.4819    6.2162  -10.7325 H         1 UNK         0.0810 
    118 H118       26.8335    5.7508  -10.3455 H         1 UNK         0.0810 
    119 H119       27.6361    5.0781  -11.7650 H         1 UNK         0.0810 
    120 H120       29.5215    2.1288   -9.0007 H         1 UNK         0.3040 
    121 H121       32.1217    2.6589  -10.1945 H         1 UNK         0.0766 
    122 H122       31.0261    1.3604  -12.0357 H         1 UNK         0.0812 
    123 H123       30.5519    0.1045  -10.8941 H         1 UNK         0.0812 
    124 H124       32.2535    0.3809  -11.2475 H         1 UNK         0.0812 
    125 H125       33.6033    2.0862   -8.6929 H         1 UNK         0.3205 
    126 H126       32.7569    0.8979   -6.1731 H         1 UNK         0.0754 
    127 H127       35.0113    1.5630   -5.4203 H         1 UNK         0.0769 
    128 H128       34.2302    2.8981   -6.2450 H         1 UNK         0.0769 
    129 H129       35.4812    1.9638   -7.0675 H         1 UNK         0.0769 
    130 H130       32.4295   -0.9845   -8.1459 H         1 UNK         0.2981 
    131 H131       32.7696   -3.0548   -8.7555 H         1 UNK         0.0541 
    132 H132       35.0694   -1.0829   -9.5323 H         1 UNK         0.3459 
    133 H133       36.2160   -2.2074  -10.2170 H         1 UNK         0.3459 
    134 H134       34.3367   -4.3732   -6.7640 H         1 UNK         0.0612 
    135 H135       33.6118   -3.0695   -5.8983 H         1 UNK         0.0612 
    136 H136       30.7205   -2.5919   -7.0474 H         1 UNK         0.0624 
    137 H137       29.7646   -3.8160   -6.2547 H         1 UNK         0.0624 
@<TRIPOS>BOND
     1    1    2 1    
     2    1   72 1    
     3    1   73 1    
     4    1   74 1    
     5    2    3 2    
     6    2    4 am   BACKBONE|DICT|INTERRES
     7    4    5 1    
     8    4   75 1    
     9    5    6 1    
    10    5   35 1    
    11    5   76 1    
    12    6    7 1    
    13    6   77 1    
    14    6   78 1    
    15    7    8 1    
    16    8    9 1    
    17    8   79 1    
    18    8   80 1    
    19    9   10 ar   
    20    9   14 ar   
    21   10   11 ar   
    22   10   81 1    
    23   11   12 ar   
    24   11   71 1    
    25   12   13 ar   
    26   12   82 1    
    27   13   14 ar   
    28   13   15 1    
    29   14   83 1    
    30   15   16 1    
    31   15   84 1    
    32   15   85 1    
    33   16   17 1    
    34   17   18 1    
    35   17   86 1    
    36   17   87 1    
    37   18   19 1    
    38   18   37 1    
    39   18   88 1    
    40   19   20 am   BACKBONE|DICT|INTERRES
    41   19   89 1    
    42   20   21 2    
    43   20   22 1    
    44   22   23 1    
    45   22   24 1    
    46   22   90 1    
    47   23   91 1    
    48   23   92 1    
    49   23   93 1    
    50   24   25 am   BACKBONE|DICT|INTERRES
    51   24   94 1    
    52   25   26 2    
    53   25   27 1    
    54   27   28 1    
    55   27   29 1    
    56   27   95 1    
    57   28   96 1    
    58   28   97 1    
    59   28   98 1    
    60   29   30 am   BACKBONE|DICT|INTERRES
    61   29   99 1    
    62   30   31 2    
    63   30   32 1    
    64   32   33 1    
    65   32   34 1    
    66   32  100 1    
    67   33  101 1    
    68   33  102 1    
    69   33  103 1    
    70   34   35 am   BACKBONE|DICT|INTERRES
    71   34  104 1    
    72   35   36 2    
    73   37   38 2    
    74   37   39 am   BACKBONE|DICT|INTERRES
    75   39   40 1    
    76   39  105 1    
    77   40   41 1    
    78   40   42 1    
    79   40  106 1    
    80   41  107 1    
    81   41  108 1    
    82   41  109 1    
    83   42   43 2    
    84   42   44 am   BACKBONE|DICT|INTERRES
    85   44   45 1    
    86   44  110 1    
    87   45   46 1    
    88   45   47 1    
    89   45  111 1    
    90   46  112 1    
    91   46  113 1    
    92   46  114 1    
    93   47   48 2    
    94   47   49 am   BACKBONE|DICT|INTERRES
    95   49   50 1    
    96   49  115 1    
    97   50   51 1    
    98   50   52 1    
    99   50  116 1    
   100   51  117 1    
   101   51  118 1    
   102   51  119 1    
   103   52   53 2    
   104   52   54 am   BACKBONE|DICT|INTERRES
   105   54   55 1    
   106   54  120 1    
   107   55   56 1    
   108   55   57 1    
   109   55  121 1    
   110   56  122 1    
   111   56  123 1    
   112   56  124 1    
   113   57   58 2    
   114   57   59 am   BACKBONE|DICT|INTERRES
   115   59   60 1    
   116   59  125 1    
   117   60   61 1    
   118   60   62 1    
   119   60  126 1    
   120   61  127 1    
   121   61  128 1    
   122   61  129 1    
   123   62   63 2    
   124   62   64 am   BACKBONE|DICT|INTERRES
   125   64   65 1    
   126   64  130 1    
   127   65   66 1    
   128   65   69 1    
   129   65  131 1    
   130   66   67 am   BACKBONE|DICT|INTERRES
   131   66   68 2    
   132   67  132 1    
   133   67  133 1    
   134   69   70 1    
   135   69  134 1    
   136   69  135 1    
   137   70   71 1    
   138   71  136 1    
   139   71  137 1    
@<TRIPOS>SUBSTRUCTURE
     1 UNK         1 GROUP             0       ****    0 ROOT    
