@<TRIPOS>MOLECULE
3R137
137   139    1
SMALL
USER_CHARGES


@<TRIPOS>ATOM
      1 CA         23.1466   -5.7537   -3.5629 C.3       0 UNK        -0.2020 
      2 C          24.4398   -4.9922   -3.3162 C.2       0 UNK         0.4855 
      3 O          24.9008   -4.2773   -4.2041 O.2       0 UNK        -0.5197 
      4 N          25.0132   -5.1304   -2.1124 N.am      1 UNK        -0.4892 
      5 CA         26.2696   -4.5168   -1.6575 C.3       1 UNK         0.0835 
      6 C6         27.5234   -5.1762   -2.2956 C.3       12 UNK        -0.0855 
      7 S7         28.9081   -5.2411   -1.1114 S.3       12 UNK        -0.2931 
      8 C8         30.3529   -5.1591   -2.2182 C.3       12 UNK         0.0378 
      9 C9         30.6300   -3.7625   -2.7663 C.ar      12 UNK        -0.0802 
     10 C10        30.8980   -3.5913   -4.1269 C.ar      12 UNK        -0.0944 
     11 C11        31.2428   -2.3346   -4.6322 C.ar      12 UNK        -0.0787 
     12 C12        31.3119   -1.2389   -3.7671 C.ar      12 UNK        -0.0862 
     13 C13        31.0179   -1.3864   -2.4066 C.ar      12 UNK        -0.0733 
     14 C14        30.6880   -2.6539   -1.9144 C.ar      12 UNK        -0.0832 
     15 C15        31.0822   -0.2007   -1.4446 C.3       12 UNK         0.0240 
     16 S16        30.2923    1.3261   -2.0656 S.3       12 UNK        -0.2522 
     17 C17        28.6380    0.7402   -2.5636 C.3       12 UNK        -0.0967 
     18 CA         28.4696    0.7934   -4.1053 C.3       5 UNK         0.0660 
     19 N          27.7088   -0.3420   -4.6270 N.am      5 UNK        -0.4015 
     20 C          27.6275   -0.6657   -5.9260 C.2       4 UNK         0.4946 
     21 O          28.2234   -0.0741   -6.8265 O.2       4 UNK        -0.5353 
     22 CA         26.6904   -1.8240   -6.2939 C.3       4 UNK         0.0277 
     23 CB         27.4080   -3.1692   -6.1071 C.3       4 UNK        -0.1981 
     24 N          25.4450   -1.8042   -5.5221 N.am      4 UNK        -0.4209 
     25 C          24.5446   -0.8097   -5.5646 C.2       3 UNK         0.4942 
     26 O          24.6382    0.1705   -6.3031 O.2       3 UNK        -0.5208 
     27 CA         23.3723   -0.8878   -4.5753 C.3       3 UNK         0.0250 
     28 CB         22.3195   -1.9070   -5.0397 C.3       3 UNK        -0.1990 
     29 N          23.8148   -1.2008   -3.2146 N.am      3 UNK        -0.4232 
     30 C          24.5863   -0.3993   -2.4647 C.2       2 UNK         0.4993 
     31 O          24.9904    0.7030   -2.8296 O.2       2 UNK        -0.5286 
     32 CA         25.0147   -0.9272   -1.0871 C.3       2 UNK         0.0209 
     33 CB         23.9658   -0.5728   -0.0214 C.3       2 UNK        -0.1931 
     34 N          25.2615   -2.3710   -1.0757 N.am      2 UNK        -0.4546 
     35 C          26.2340   -2.9762   -1.7729 C.2       1 UNK         0.5154 
     36 O          27.0153   -2.3704   -2.5101 O.2       1 UNK        -0.5181 
     37 C          27.9047    2.1468   -4.5816 C.2       5 UNK         0.5014 
     38 O          28.6712    2.9812   -5.0639 O.2       5 UNK        -0.5248 
     39 N          26.5802    2.3318   -4.4722 N.am      6 UNK        -0.4434 
     40 CA         25.8618    3.5312   -4.9149 C.3       6 UNK         0.0363 
     41 CB         24.3976    3.4590   -4.4533 C.3       6 UNK        -0.1936 
     42 C          25.9371    3.7564   -6.4337 C.2       6 UNK         0.5081 
     43 O          26.1061    4.8960   -6.8685 O.2       6 UNK        -0.5248 
     44 N          25.8362    2.6702   -7.2116 N.am      7 UNK        -0.4718 
     45 CA         26.0087    2.6770   -8.6668 C.3       7 UNK         0.0273 
     46 CB         25.4382    1.3696   -9.2411 C.3       7 UNK        -0.1935 
     47 C          27.4737    2.8488   -9.1091 C.2       7 UNK         0.5018 
     48 O          27.7057    3.2086  -10.2640 O.2       7 UNK        -0.5186 
     49 N          28.4205    2.5555   -8.2034 N.am      8 UNK        -0.4240 
     50 CA         29.8684    2.4445   -8.4166 C.3       8 UNK         0.0235 
     51 CB         30.4851    3.8208   -8.7418 C.3       8 UNK        -0.2000 
     52 C          30.2096    1.3589   -9.4566 C.2       8 UNK         0.4941 
     53 O          31.0867    1.5621  -10.2993 O.2       8 UNK        -0.5273 
     54 N          29.4817    0.2341   -9.3872 N.am      9 UNK        -0.4262 
     55 CA         29.5267   -0.8865  -10.3267 C.3       9 UNK         0.0264 
     56 CB         28.3936   -1.8697   -9.9863 C.3       9 UNK        -0.1955 
     57 C          30.8981   -1.5730  -10.2936 C.2       9 UNK         0.5031 
     58 O          31.1894   -2.2921   -9.3379 O.2       9 UNK        -0.5390 
     59 N          31.7407   -1.2666  -11.2899 N.am      10 UNK        -0.4204 
     60 CA         33.1625   -1.6202  -11.4354 C.3       10 UNK         0.0237 
     61 CB         33.3765   -3.1470  -11.4543 C.3       10 UNK        -0.1985 
     62 C          34.0947   -0.9390  -10.4124 C.2       10 UNK         0.4970 
     63 O          35.2262   -0.6074  -10.7683 O.2       10 UNK        -0.4914 
     64 N          33.6150   -0.7325   -9.1812 N.am      11 UNK        -0.4285 
     65 CA         34.3204   -0.0634   -8.0789 C.3       11 UNK         0.1007 
     66 C          34.5734    1.4561   -8.2961 C.2       11 UNK         0.5703 
     67 N          33.8488    2.1359   -9.1777 N.am      11 UNK        -0.7361 
     68 O          35.4534    2.0263   -7.6557 O.2       11 UNK        -0.4986 
     69 C69        33.6281   -0.3144   -6.7120 C.3       12 UNK        -0.0947 
     70 S70        33.3613   -2.0912   -6.3798 S.3       12 UNK        -0.2240 
     71 C71        31.5615   -2.1730   -6.1095 C.3       12 UNK         0.0194 
     72 H72        23.2432   -6.3739   -4.4536 H         1 UNK         0.0906 
     73 H73        22.8872   -6.4020   -2.7263 H         1 UNK         0.0906 
     74 H74        22.3240   -5.0571   -3.7211 H         1 UNK         0.0906 
     75 H75        24.5617   -5.7249   -1.4301 H         1 UNK         0.3140 
     76 H76        26.2970   -4.7256   -0.5863 H         1 UNK         0.1085 
     77 H77        27.8253   -4.6810   -3.2187 H         1 UNK         0.0836 
     78 H78        27.3050   -6.2074   -2.5775 H         1 UNK         0.0836 
     79 H79        30.2177   -5.8786   -3.0275 H         1 UNK         0.0731 
     80 H80        31.2322   -5.4870   -1.6624 H         1 UNK         0.0731 
     81 H81        30.8651   -4.4432   -4.7923 H         1 UNK         0.1312 
     82 H82        31.5966   -0.2709   -4.1551 H         1 UNK         0.1406 
     83 H83        30.4857   -2.7849   -0.8601 H         1 UNK         0.1631 
     84 H84        32.1286    0.0128   -1.2236 H         1 UNK         0.0717 
     85 H85        30.6137   -0.4571   -0.4930 H         1 UNK         0.0717 
     86 H86        28.5126   -0.2782   -2.1958 H         1 UNK         0.0934 
     87 H87        27.8745    1.3243   -2.0454 H         1 UNK         0.0934 
     88 H88        29.4555    0.7025   -4.5645 H         1 UNK         0.0739 
     89 H89        27.2380   -0.9317   -3.9476 H         1 UNK         0.3093 
     90 H90        26.4274   -1.7175   -7.3482 H         1 UNK         0.0818 
     91 H91        28.3222   -3.2129   -6.7003 H         1 UNK         0.0819 
     92 H92        26.7774   -4.0037   -6.4138 H         1 UNK         0.0819 
     93 H93        27.6910   -3.3270   -5.0668 H         1 UNK         0.0819 
     94 H94        25.2766   -2.6010   -4.9093 H         1 UNK         0.3041 
     95 H95        22.8986    0.0960   -4.5486 H         1 UNK         0.0784 
     96 H96        21.9452   -1.6507   -6.0317 H         1 UNK         0.0793 
     97 H97        22.7260   -2.9165   -5.0991 H         1 UNK         0.0793 
     98 H98        21.4621   -1.9280   -4.3668 H         1 UNK         0.0793 
     99 H99        23.5619   -2.1050   -2.8455 H         1 UNK         0.3024 
    100 H100       25.9507   -0.4271   -0.8270 H         1 UNK         0.1171 
    101 H101       24.2999   -0.8606    0.9757 H         1 UNK         0.0786 
    102 H102       23.7802    0.5023   -0.0006 H         1 UNK         0.0786 
    103 H103       23.0110   -1.0645   -0.2118 H         1 UNK         0.0786 
    104 H104       24.6429   -2.9375   -0.5129 H         1 UNK         0.2977 
    105 H105       26.0170    1.6151   -4.0144 H         1 UNK         0.3127 
    106 H106       26.3289    4.3916   -4.4312 H         1 UNK         0.0770 
    107 H107       23.8874    2.5891   -4.8690 H         1 UNK         0.0814 
    108 H108       23.8437    4.3451   -4.7662 H         1 UNK         0.0814 
    109 H109       24.3273    3.3994   -3.3671 H         1 UNK         0.0814 
    110 H110       25.6197    1.7738   -6.7809 H         1 UNK         0.2983 
    111 H111       25.4402    3.5132   -9.0797 H         1 UNK         0.0947 
    112 H112       25.5251    1.3463  -10.3282 H         1 UNK         0.0806 
    113 H113       24.3817    1.2568   -8.9972 H         1 UNK         0.0806 
    114 H114       25.9655    0.4975   -8.8517 H         1 UNK         0.0806 
    115 H115       28.1028    2.2508   -7.2916 H         1 UNK         0.3000 
    116 H116       30.2904    2.1053   -7.4691 H         1 UNK         0.0850 
    117 H117       31.5734    3.7673   -8.7576 H         1 UNK         0.0810 
    118 H118       30.2093    4.5635   -7.9932 H         1 UNK         0.0810 
    119 H119       30.1640    4.1897   -9.7163 H         1 UNK         0.0810 
    120 H120       28.8656    0.1282   -8.5832 H         1 UNK         0.3040 
    121 H121       29.3468   -0.4951  -11.3300 H         1 UNK         0.0766 
    122 H122       27.4166   -1.3923  -10.0635 H         1 UNK         0.0812 
    123 H123       28.4940   -2.2641   -8.9747 H         1 UNK         0.0812 
    124 H124       28.3960   -2.7197  -10.6696 H         1 UNK         0.0812 
    125 H125       31.4077   -0.5972  -11.9713 H         1 UNK         0.3205 
    126 H126       33.4555   -1.2396  -12.4153 H         1 UNK         0.0754 
    127 H127       34.4133   -3.3894  -11.6912 H         1 UNK         0.0769 
    128 H128       32.7510   -3.6262  -12.2074 H         1 UNK         0.0769 
    129 H129       33.1523   -3.6046  -10.4903 H         1 UNK         0.0769 
    130 H130       32.7004   -1.1159   -8.9665 H         1 UNK         0.2981 
    131 H131       35.3093   -0.5228   -8.0262 H         1 UNK         0.0541 
    132 H132       33.0887    1.6983   -9.6842 H         1 UNK         0.3459 
    133 H133       34.0407    3.1150   -9.3137 H         1 UNK         0.3459 
    134 H134       34.2390    0.0822   -5.8990 H         1 UNK         0.0612 
    135 H135       32.6800    0.2235   -6.6654 H         1 UNK         0.0612 
    136 H136       31.0538   -1.2953   -6.5118 H         1 UNK         0.0624 
    137 H137       31.1701   -3.0217   -6.6722 H         1 UNK         0.0624 
@<TRIPOS>BOND
     1    1    2 1    
     2    1   72 1    
     3    1   73 1    
     4    1   74 1    
     5    2    3 2    
     6    2    4 am   BACKBONE|DICT|INTERRES
     7    4    5 1    
     8    4   75 1    
     9    5    6 1    
    10    5   35 1    
    11    5   76 1    
    12    6    7 1    
    13    6   77 1    
    14    6   78 1    
    15    7    8 1    
    16    8    9 1    
    17    8   79 1    
    18    8   80 1    
    19    9   10 ar   
    20    9   14 ar   
    21   10   11 ar   
    22   10   81 1    
    23   11   12 ar   
    24   11   71 1    
    25   12   13 ar   
    26   12   82 1    
    27   13   14 ar   
    28   13   15 1    
    29   14   83 1    
    30   15   16 1    
    31   15   84 1    
    32   15   85 1    
    33   16   17 1    
    34   17   18 1    
    35   17   86 1    
    36   17   87 1    
    37   18   19 1    
    38   18   37 1    
    39   18   88 1    
    40   19   20 am   BACKBONE|DICT|INTERRES
    41   19   89 1    
    42   20   21 2    
    43   20   22 1    
    44   22   23 1    
    45   22   24 1    
    46   22   90 1    
    47   23   91 1    
    48   23   92 1    
    49   23   93 1    
    50   24   25 am   BACKBONE|DICT|INTERRES
    51   24   94 1    
    52   25   26 2    
    53   25   27 1    
    54   27   28 1    
    55   27   29 1    
    56   27   95 1    
    57   28   96 1    
    58   28   97 1    
    59   28   98 1    
    60   29   30 am   BACKBONE|DICT|INTERRES
    61   29   99 1    
    62   30   31 2    
    63   30   32 1    
    64   32   33 1    
    65   32   34 1    
    66   32  100 1    
    67   33  101 1    
    68   33  102 1    
    69   33  103 1    
    70   34   35 am   BACKBONE|DICT|INTERRES
    71   34  104 1    
    72   35   36 2    
    73   37   38 2    
    74   37   39 am   BACKBONE|DICT|INTERRES
    75   39   40 1    
    76   39  105 1    
    77   40   41 1    
    78   40   42 1    
    79   40  106 1    
    80   41  107 1    
    81   41  108 1    
    82   41  109 1    
    83   42   43 2    
    84   42   44 am   BACKBONE|DICT|INTERRES
    85   44   45 1    
    86   44  110 1    
    87   45   46 1    
    88   45   47 1    
    89   45  111 1    
    90   46  112 1    
    91   46  113 1    
    92   46  114 1    
    93   47   48 2    
    94   47   49 am   BACKBONE|DICT|INTERRES
    95   49   50 1    
    96   49  115 1    
    97   50   51 1    
    98   50   52 1    
    99   50  116 1    
   100   51  117 1    
   101   51  118 1    
   102   51  119 1    
   103   52   53 2    
   104   52   54 am   BACKBONE|DICT|INTERRES
   105   54   55 1    
   106   54  120 1    
   107   55   56 1    
   108   55   57 1    
   109   55  121 1    
   110   56  122 1    
   111   56  123 1    
   112   56  124 1    
   113   57   58 2    
   114   57   59 am   BACKBONE|DICT|INTERRES
   115   59   60 1    
   116   59  125 1    
   117   60   61 1    
   118   60   62 1    
   119   60  126 1    
   120   61  127 1    
   121   61  128 1    
   122   61  129 1    
   123   62   63 2    
   124   62   64 am   BACKBONE|DICT|INTERRES
   125   64   65 1    
   126   64  130 1    
   127   65   66 1    
   128   65   69 1    
   129   65  131 1    
   130   66   67 am   BACKBONE|DICT|INTERRES
   131   66   68 2    
   132   67  132 1    
   133   67  133 1    
   134   69   70 1    
   135   69  134 1    
   136   69  135 1    
   137   70   71 1    
   138   71  136 1    
   139   71  137 1    
@<TRIPOS>SUBSTRUCTURE
     1 UNK         1 GROUP             0       ****    0 ROOT    
