@<TRIPOS>MOLECULE
3R137
137   139    1
SMALL
USER_CHARGES


@<TRIPOS>ATOM
      1 CA         24.1584   -4.9950   -2.7666 C.3       0 UNK        -0.2020 
      2 C          25.2300   -3.9202   -2.8630 C.2       0 UNK         0.4855 
      3 O          25.7554   -3.6968   -3.9526 O.2       0 UNK        -0.5197 
      4 N          25.5381   -3.2655   -1.7324 N.am      1 UNK        -0.4892 
      5 CA         26.5028   -2.1697   -1.5468 C.3       1 UNK         0.0835 
      6 C6         27.9660   -2.5375   -1.8874 C.3       12 UNK        -0.0855 
      7 S7         28.6198   -3.8838   -0.8434 S.3       12 UNK        -0.2931 
      8 C8         30.4026   -3.4823   -0.8180 C.3       12 UNK         0.0378 
      9 C9         30.9728   -3.2931   -2.2191 C.ar      12 UNK        -0.0802 
     10 C10        31.6118   -2.0980   -2.5694 C.ar      12 UNK        -0.0944 
     11 C11        32.0724   -1.9000   -3.8746 C.ar      12 UNK        -0.0787 
     12 C12        31.9014   -2.9079   -4.8246 C.ar      12 UNK        -0.0862 
     13 C13        31.2616   -4.1021   -4.4896 C.ar      12 UNK        -0.0733 
     14 C14        30.8205   -4.2985   -3.1790 C.ar      12 UNK        -0.0832 
     15 C15        30.9928   -5.1571   -5.5529 C.3       12 UNK         0.0240 
     16 S16        29.8997   -4.5503   -6.8835 S.3       12 UNK        -0.2522 
     17 C17        28.4735   -3.8604   -5.9739 C.3       12 UNK        -0.0967 
     18 CA         27.9570   -2.5318   -6.5815 C.3       5 UNK         0.0660 
     19 N          26.5365   -2.3393   -6.2722 N.am      5 UNK        -0.4015 
     20 C          25.7331   -1.4708   -6.8956 C.2       4 UNK         0.4946 
     21 O          26.1468   -0.5661   -7.6200 O.2       4 UNK        -0.5353 
     22 CA         24.2231   -1.6733   -6.7351 C.3       4 UNK         0.0277 
     23 CB         23.8094   -3.1398   -6.9877 C.3       4 UNK        -0.1981 
     24 N          23.7320   -1.2114   -5.4365 N.am      4 UNK        -0.4209 
     25 C          22.4465   -0.8853   -5.2164 C.2       3 UNK         0.4942 
     26 O          21.5899   -0.8710   -6.1020 O.2       3 UNK        -0.5208 
     27 CA         22.0036   -0.5458   -3.7812 C.3       3 UNK         0.0250 
     28 CB         21.3255   -1.7642   -3.1322 C.3       3 UNK        -0.1990 
     29 N          23.1004   -0.1062   -2.9262 N.am      3 UNK        -0.4232 
     30 C          23.6742    1.1028   -2.9704 C.2       2 UNK         0.4993 
     31 O          23.2503    2.0332   -3.6545 O.2       2 UNK        -0.5286 
     32 CA         24.9364    1.3088   -2.1098 C.3       2 UNK         0.0209 
     33 CB         24.6534    2.2801   -0.9518 C.3       2 UNK        -0.1931 
     34 N          25.4909    0.0614   -1.5649 N.am      2 UNK        -0.4546 
     35 C          26.0548   -0.9046   -2.3026 C.2       1 UNK         0.5154 
     36 O          26.1896   -0.8234   -3.5266 O.2       1 UNK        -0.5181 
     37 C          28.8434   -1.3091   -6.2481 C.2       5 UNK         0.5014 
     38 O          29.8175   -1.0595   -6.9648 O.2       5 UNK        -0.5248 
     39 N          28.4653   -0.5310   -5.2230 N.am      6 UNK        -0.4434 
     40 CA         29.1112    0.7377   -4.8710 C.3       6 UNK         0.0363 
     41 CB         29.1986    0.8682   -3.3420 C.3       6 UNK        -0.1936 
     42 C          28.4038    1.9620   -5.4800 C.2       6 UNK         0.5081 
     43 O          28.9003    3.0744   -5.3023 O.2       6 UNK        -0.5248 
     44 N          27.2751    1.7642   -6.1747 N.am      7 UNK        -0.4718 
     45 CA         26.5377    2.8239   -6.8693 C.3       7 UNK         0.0273 
     46 CB         25.0286    2.6044   -6.6850 C.3       7 UNK        -0.1935 
     47 C          26.8906    2.8812   -8.3626 C.2       7 UNK         0.5018 
     48 O          26.9289    3.9759   -8.9249 O.2       7 UNK        -0.5186 
     49 N          27.1274    1.7098   -8.9712 N.am      8 UNK        -0.4240 
     50 CA         27.4624    1.5161  -10.3844 C.3       8 UNK         0.0235 
     51 CB         27.6205    0.0156  -10.6938 C.3       8 UNK        -0.2000 
     52 C          28.6548    2.3433  -10.9174 C.2       8 UNK         0.4941 
     53 O          28.4915    2.9737  -11.9612 O.2       8 UNK        -0.5273 
     54 N          29.8261    2.3959  -10.2658 N.am      9 UNK        -0.4262 
     55 CA         30.3148    1.5793   -9.1548 C.3       9 UNK         0.0264 
     56 CB         30.8567    2.5126   -8.0607 C.3       9 UNK        -0.1955 
     57 C          31.4477    0.6913   -9.6813 C.2       9 UNK         0.5031 
     58 O          32.1714    1.1094  -10.5899 O.2       9 UNK        -0.5390 
     59 N          31.6055   -0.5005   -9.0934 N.am      10 UNK        -0.4204 
     60 CA         32.6891   -1.4262   -9.4422 C.3       10 UNK         0.0237 
     61 CB         32.2874   -2.8594   -9.0690 C.3       10 UNK        -0.1985 
     62 C          34.0359   -1.0416   -8.8018 C.2       10 UNK         0.4970 
     63 O          35.0794   -1.4066   -9.3449 O.2       10 UNK        -0.4914 
     64 N          33.9976   -0.3147   -7.6768 N.am      11 UNK        -0.4285 
     65 CA         35.1775    0.2672   -7.0200 C.3       11 UNK         0.1007 
     66 C          35.7279    1.4785   -7.8189 C.2       11 UNK         0.5703 
     67 N          37.0430    1.6041   -7.9340 N.am      11 UNK        -0.7361 
     68 O          34.9744    2.3258   -8.2947 O.2       11 UNK        -0.4986 
     69 C69        34.8831    0.6709   -5.5514 C.3       12 UNK        -0.0947 
     70 S70        34.5080   -0.7723   -4.5032 S.3       12 UNK        -0.2240 
     71 C71        32.7136   -0.5878   -4.2915 C.3       12 UNK         0.0194 
     72 H72        24.5906   -5.9715   -2.9827 H         1 UNK         0.0906 
     73 H73        23.7037   -5.0347   -1.7771 H         1 UNK         0.0906 
     74 H74        23.3706   -4.8039   -3.4947 H         1 UNK         0.0906 
     75 H75        25.0557   -3.5359   -0.8863 H         1 UNK         0.3140 
     76 H76        26.4813   -1.9345   -0.4811 H         1 UNK         0.1085 
     77 H77        28.0656   -2.8212   -2.9346 H         1 UNK         0.0836 
     78 H78        28.6057   -1.6657   -1.7467 H         1 UNK         0.0836 
     79 H79        30.5518   -2.5859   -0.2139 H         1 UNK         0.0731 
     80 H80        30.9427   -4.2868   -0.3172 H         1 UNK         0.0731 
     81 H81        31.7289   -1.3126   -1.8353 H         1 UNK         0.1312 
     82 H82        32.2405   -2.7447   -5.8356 H         1 UNK         0.1406 
     83 H83        30.3116   -5.2151   -2.9127 H         1 UNK         0.1631 
     84 H84        30.5429   -6.0478   -5.1116 H         1 UNK         0.0717 
     85 H85        31.9401   -5.4748   -5.9904 H         1 UNK         0.0717 
     86 H86        27.6911   -4.6201   -6.0173 H         1 UNK         0.0934 
     87 H87        28.6922   -3.7387   -4.9150 H         1 UNK         0.0934 
     88 H88        27.9997   -2.6367   -7.6682 H         1 UNK         0.0739 
     89 H89        26.1433   -2.9603   -5.5649 H         1 UNK         0.3093 
     90 H90        23.7607   -1.0617   -7.5134 H         1 UNK         0.0818 
     91 H91        22.7289   -3.2337   -7.0962 H         1 UNK         0.0819 
     92 H92        24.2555   -3.5220   -7.9070 H         1 UNK         0.0819 
     93 H93        24.1163   -3.7980   -6.1745 H         1 UNK         0.0819 
     94 H94        24.4132   -1.1581   -4.6860 H         1 UNK         0.3041 
     95 H95        21.2693    0.2604   -3.8453 H         1 UNK         0.0784 
     96 H96        20.4790   -2.1044   -3.7306 H         1 UNK         0.0793 
     97 H97        22.0126   -2.6053   -3.0334 H         1 UNK         0.0793 
     98 H98        20.9420   -1.5241   -2.1403 H         1 UNK         0.0793 
     99 H99        23.5029   -0.7966   -2.3106 H         1 UNK         0.3024 
    100 H100       25.6891    1.7590   -2.7617 H         1 UNK         0.1171 
    101 H101       24.2733    3.2326   -1.3242 H         1 UNK         0.0786 
    102 H102       25.5587    2.4962   -0.3842 H         1 UNK         0.0786 
    103 H103       23.9094    1.8803   -0.2616 H         1 UNK         0.0786 
    104 H104       25.4059   -0.0669   -0.5660 H         1 UNK         0.2977 
    105 H105       27.6283   -0.7748   -4.6948 H         1 UNK         0.3127 
    106 H106       30.1317    0.7468   -5.2553 H         1 UNK         0.0770 
    107 H107       28.2143    0.9500   -2.8834 H         1 UNK         0.0814 
    108 H108       29.7594    1.7600   -3.0595 H         1 UNK         0.0814 
    109 H109       29.7140    0.0168   -2.9024 H         1 UNK         0.0814 
    110 H110       26.9487    0.8162   -6.3217 H         1 UNK         0.2983 
    111 H111       26.7847    3.7966   -6.4379 H         1 UNK         0.0947 
    112 H112       24.4547    3.3733   -7.2040 H         1 UNK         0.0806 
    113 H113       24.7574    2.6577   -5.6326 H         1 UNK         0.0806 
    114 H114       24.7010    1.6379   -7.0683 H         1 UNK         0.0806 
    115 H115       26.9647    0.8608   -8.4340 H         1 UNK         0.3000 
    116 H116       26.5874    1.8600  -10.9398 H         1 UNK         0.0850 
    117 H117       27.8820   -0.1424  -11.7410 H         1 UNK         0.0810 
    118 H118       26.6891   -0.5209  -10.5112 H         1 UNK         0.0810 
    119 H119       28.3935   -0.4583  -10.0900 H         1 UNK         0.0810 
    120 H120       30.5612    2.9278  -10.7103 H         1 UNK         0.3040 
    121 H121       29.5377    0.9496   -8.7285 H         1 UNK         0.0766 
    122 H122       31.1721    1.9471   -7.1836 H         1 UNK         0.0812 
    123 H123       30.0971    3.2237   -7.7367 H         1 UNK         0.0812 
    124 H124       31.7191    3.0855   -8.4053 H         1 UNK         0.0812 
    125 H125       30.9722   -0.7772   -8.3408 H         1 UNK         0.3205 
    126 H126       32.8312   -1.4012  -10.5250 H         1 UNK         0.0754 
    127 H127       33.0643   -3.5713   -9.3508 H         1 UNK         0.0769 
    128 H128       31.3709   -3.1603   -9.5771 H         1 UNK         0.0769 
    129 H129       32.1232   -2.9627   -7.9996 H         1 UNK         0.0769 
    130 H130       33.1007   -0.0311   -7.3176 H         1 UNK         0.2981 
    131 H131       35.9546   -0.5001   -7.0021 H         1 UNK         0.0541 
    132 H132       37.6697    0.9217   -7.5360 H         1 UNK         0.3459 
    133 H133       37.4169    2.3945   -8.4356 H         1 UNK         0.3459 
    134 H134       34.0692    1.3966   -5.4999 H         1 UNK         0.0612 
    135 H135       35.7533    1.1626   -5.1124 H         1 UNK         0.0612 
    136 H136       32.2674   -0.2639   -5.2322 H         1 UNK         0.0624 
    137 H137       32.5120    0.1982   -3.5622 H         1 UNK         0.0624 
@<TRIPOS>BOND
     1    1    2 1    
     2    1   72 1    
     3    1   73 1    
     4    1   74 1    
     5    2    3 2    
     6    2    4 am   BACKBONE|DICT|INTERRES
     7    4    5 1    
     8    4   75 1    
     9    5    6 1    
    10    5   35 1    
    11    5   76 1    
    12    6    7 1    
    13    6   77 1    
    14    6   78 1    
    15    7    8 1    
    16    8    9 1    
    17    8   79 1    
    18    8   80 1    
    19    9   10 ar   
    20    9   14 ar   
    21   10   11 ar   
    22   10   81 1    
    23   11   12 ar   
    24   11   71 1    
    25   12   13 ar   
    26   12   82 1    
    27   13   14 ar   
    28   13   15 1    
    29   14   83 1    
    30   15   16 1    
    31   15   84 1    
    32   15   85 1    
    33   16   17 1    
    34   17   18 1    
    35   17   86 1    
    36   17   87 1    
    37   18   19 1    
    38   18   37 1    
    39   18   88 1    
    40   19   20 am   BACKBONE|DICT|INTERRES
    41   19   89 1    
    42   20   21 2    
    43   20   22 1    
    44   22   23 1    
    45   22   24 1    
    46   22   90 1    
    47   23   91 1    
    48   23   92 1    
    49   23   93 1    
    50   24   25 am   BACKBONE|DICT|INTERRES
    51   24   94 1    
    52   25   26 2    
    53   25   27 1    
    54   27   28 1    
    55   27   29 1    
    56   27   95 1    
    57   28   96 1    
    58   28   97 1    
    59   28   98 1    
    60   29   30 am   BACKBONE|DICT|INTERRES
    61   29   99 1    
    62   30   31 2    
    63   30   32 1    
    64   32   33 1    
    65   32   34 1    
    66   32  100 1    
    67   33  101 1    
    68   33  102 1    
    69   33  103 1    
    70   34   35 am   BACKBONE|DICT|INTERRES
    71   34  104 1    
    72   35   36 2    
    73   37   38 2    
    74   37   39 am   BACKBONE|DICT|INTERRES
    75   39   40 1    
    76   39  105 1    
    77   40   41 1    
    78   40   42 1    
    79   40  106 1    
    80   41  107 1    
    81   41  108 1    
    82   41  109 1    
    83   42   43 2    
    84   42   44 am   BACKBONE|DICT|INTERRES
    85   44   45 1    
    86   44  110 1    
    87   45   46 1    
    88   45   47 1    
    89   45  111 1    
    90   46  112 1    
    91   46  113 1    
    92   46  114 1    
    93   47   48 2    
    94   47   49 am   BACKBONE|DICT|INTERRES
    95   49   50 1    
    96   49  115 1    
    97   50   51 1    
    98   50   52 1    
    99   50  116 1    
   100   51  117 1    
   101   51  118 1    
   102   51  119 1    
   103   52   53 2    
   104   52   54 am   BACKBONE|DICT|INTERRES
   105   54   55 1    
   106   54  120 1    
   107   55   56 1    
   108   55   57 1    
   109   55  121 1    
   110   56  122 1    
   111   56  123 1    
   112   56  124 1    
   113   57   58 2    
   114   57   59 am   BACKBONE|DICT|INTERRES
   115   59   60 1    
   116   59  125 1    
   117   60   61 1    
   118   60   62 1    
   119   60  126 1    
   120   61  127 1    
   121   61  128 1    
   122   61  129 1    
   123   62   63 2    
   124   62   64 am   BACKBONE|DICT|INTERRES
   125   64   65 1    
   126   64  130 1    
   127   65   66 1    
   128   65   69 1    
   129   65  131 1    
   130   66   67 am   BACKBONE|DICT|INTERRES
   131   66   68 2    
   132   67  132 1    
   133   67  133 1    
   134   69   70 1    
   135   69  134 1    
   136   69  135 1    
   137   70   71 1    
   138   71  136 1    
   139   71  137 1    
@<TRIPOS>SUBSTRUCTURE
     1 UNK         1 GROUP             0       ****    0 ROOT    
