@<TRIPOS>MOLECULE
3R137
137   139    1
SMALL
USER_CHARGES


@<TRIPOS>ATOM
      1 CA         28.8604   -5.2608   -7.1320 C.3       0 UNK        -0.2020 
      2 C          28.1548   -4.7748   -5.8757 C.2       0 UNK         0.4855 
      3 O          27.8051   -3.5992   -5.7903 O.2       0 UNK        -0.5197 
      4 N          27.9272   -5.6744   -4.9078 N.am      1 UNK        -0.4892 
      5 CA         27.2949   -5.4569   -3.5929 C.3       1 UNK         0.0835 
      6 C6         28.0471   -4.4296   -2.7040 C.3       12 UNK        -0.0855 
      7 S7         29.6640   -5.0484   -2.1114 S.3       12 UNK        -0.2931 
      8 C8         30.8770   -4.0753   -3.0802 C.3       12 UNK         0.0378 
      9 C9         31.0289   -2.5935   -2.7143 C.ar      12 UNK        -0.0802 
     10 C10        32.0688   -1.8640   -3.3031 C.ar      12 UNK        -0.0944 
     11 C11        32.2080   -0.4910   -3.0712 C.ar      12 UNK        -0.0787 
     12 C12        31.2807    0.1659   -2.2572 C.ar      12 UNK        -0.0862 
     13 C13        30.2365   -0.5454   -1.6622 C.ar      12 UNK        -0.0733 
     14 C14        30.1467   -1.9266   -1.8557 C.ar      12 UNK        -0.0832 
     15 C15        29.1723    0.1754   -0.8449 C.3       12 UNK         0.0240 
     16 S16        27.9244    0.9992   -1.8971 S.3       12 UNK        -0.2522 
     17 C17        27.2600   -0.3794   -2.9068 C.3       12 UNK        -0.0967 
     18 CA         26.8449   -0.0313   -4.3591 C.3       5 UNK         0.0660 
     19 N          25.5792    0.7034   -4.4110 N.am      5 UNK        -0.4015 
     20 C          24.9042    1.0003   -5.5297 C.2       4 UNK         0.4946 
     21 O          25.3530    0.8428   -6.6677 O.2       4 UNK        -0.5353 
     22 CA         23.4588    1.4846   -5.3313 C.3       4 UNK         0.0277 
     23 CB         22.7979    1.9289   -6.6498 C.3       4 UNK        -0.1981 
     24 N          22.6763    0.3938   -4.7460 N.am      4 UNK        -0.4209 
     25 C          22.5084    0.1848   -3.4326 C.2       3 UNK         0.4942 
     26 O          22.8994    0.9625   -2.5616 O.2       3 UNK        -0.5208 
     27 CA         21.8501   -1.1466   -3.0248 C.3       3 UNK         0.0250 
     28 CB         20.3199   -1.0602   -3.1460 C.3       3 UNK        -0.1990 
     29 N          22.3482   -2.2845   -3.8083 N.am      3 UNK        -0.4232 
     30 C          23.6137   -2.7287   -3.7722 C.2       2 UNK         0.4993 
     31 O          24.4689   -2.2758   -3.0098 O.2       2 UNK        -0.5286 
     32 CA         23.9846   -3.8234   -4.7898 C.3       2 UNK         0.0209 
     33 CB         23.8414   -3.2878   -6.2250 C.3       2 UNK        -0.1931 
     34 N          25.3607   -4.2952   -4.6101 N.am      2 UNK        -0.4546 
     35 C          25.7803   -5.1395   -3.6611 C.2       1 UNK         0.5154 
     36 O          25.0175   -5.6882   -2.8634 O.2       1 UNK        -0.5181 
     37 C          27.9766    0.6140   -5.1842 C.2       5 UNK         0.5014 
     38 O          28.6411   -0.0817   -5.9502 O.2       5 UNK        -0.5248 
     39 N          28.1308    1.9399   -5.0612 N.am      6 UNK        -0.4434 
     40 CA         29.1462    2.7237   -5.7653 C.3       6 UNK         0.0363 
     41 CB         29.2000    4.1410   -5.1749 C.3       6 UNK        -0.1936 
     42 C          28.9369    2.7755   -7.2872 C.2       6 UNK         0.5081 
     43 O          29.9166    2.8711   -8.0243 O.2       6 UNK        -0.5248 
     44 N          27.6766    2.7020   -7.7359 N.am      7 UNK        -0.4718 
     45 CA         27.3231    2.6390   -9.1535 C.3       7 UNK         0.0273 
     46 CB         25.8680    3.0960   -9.3482 C.3       7 UNK        -0.1935 
     47 C          27.5356    1.2272   -9.7179 C.2       7 UNK         0.5018 
     48 O          28.0766    1.0905  -10.8152 O.2       7 UNK        -0.5186 
     49 N          27.1096    0.2095   -8.9575 N.am      8 UNK        -0.4240 
     50 CA         27.1936   -1.2002   -9.3363 C.3       8 UNK         0.0235 
     51 CB         26.2904   -2.0269   -8.4124 C.3       8 UNK        -0.2000 
     52 C          28.6291   -1.7487   -9.3401 C.2       8 UNK         0.4941 
     53 O          29.0162   -2.4047  -10.3082 O.2       8 UNK        -0.5273 
     54 N          29.3914   -1.4816   -8.2713 N.am      9 UNK        -0.4262 
     55 CA         30.7653   -1.9637   -8.1095 C.3       9 UNK         0.0264 
     56 CB         31.0955   -2.0574   -6.6120 C.3       9 UNK        -0.1955 
     57 C          31.8091   -1.0873   -8.8185 C.2       9 UNK         0.5031 
     58 O          32.9430   -1.5407   -8.9831 O.2       9 UNK        -0.5390 
     59 N          31.4467    0.1551   -9.1746 N.am      10 UNK        -0.4204 
     60 CA         32.2707    1.2262   -9.7624 C.3       10 UNK         0.0237 
     61 CB         32.8772    0.8072  -11.1162 C.3       10 UNK        -0.1985 
     62 C          33.3486    1.7915   -8.8147 C.2       10 UNK         0.4970 
     63 O          33.5478    3.0065   -8.7927 O.2       10 UNK        -0.4914 
     64 N          34.0040    0.9123   -8.0472 N.am      11 UNK        -0.4285 
     65 CA         34.9540    1.2041   -6.9598 C.3       11 UNK         0.1007 
     66 C          36.3070    1.8290   -7.4171 C.2       11 UNK         0.5703 
     67 N          36.6597    1.7785   -8.6963 N.am      11 UNK        -0.7361 
     68 O          37.0695    2.3371   -6.5979 O.2       11 UNK        -0.4986 
     69 C69        34.3028    1.9753   -5.7730 C.3       12 UNK        -0.0947 
     70 S70        32.7615    1.2016   -5.1741 S.3       12 UNK        -0.2240 
     71 C71        33.3442    0.2901   -3.7154 C.3       12 UNK         0.0194 
     72 H72        28.8347   -6.3468   -7.2182 H         1 UNK         0.0906 
     73 H73        28.3848   -4.8399   -8.0176 H         1 UNK         0.0906 
     74 H74        29.9020   -4.9423   -7.1228 H         1 UNK         0.0906 
     75 H75        28.2203   -6.6286   -5.0681 H         1 UNK         0.3140 
     76 H76        27.3545   -6.4224   -3.0869 H         1 UNK         0.1085 
     77 H77        27.4597   -4.1919   -1.8145 H         1 UNK         0.0836 
     78 H78        28.1766   -3.4865   -3.2337 H         1 UNK         0.0836 
     79 H79        30.6180   -4.1519   -4.1365 H         1 UNK         0.0731 
     80 H80        31.8485   -4.5590   -2.9689 H         1 UNK         0.0731 
     81 H81        32.7651   -2.3647   -3.9619 H         1 UNK         0.1312 
     82 H82        31.3579    1.2343   -2.1075 H         1 UNK         0.1406 
     83 H83        29.3402   -2.4595   -1.3758 H         1 UNK         0.1631 
     84 H84        29.6464    0.9237   -0.2083 H         1 UNK         0.0717 
     85 H85        28.6670   -0.5195   -0.1723 H         1 UNK         0.0717 
     86 H86        27.9873   -1.1814   -2.9687 H         1 UNK         0.0934 
     87 H87        26.4185   -0.8076   -2.3631 H         1 UNK         0.0934 
     88 H88        26.6335   -0.9850   -4.8498 H         1 UNK         0.0739 
     89 H89        25.1192    0.8557   -3.5232 H         1 UNK         0.3093 
     90 H90        23.4786    2.3436   -4.6570 H         1 UNK         0.0818 
     91 H91        23.3477    2.7560   -7.1002 H         1 UNK         0.0819 
     92 H92        21.7766    2.2723   -6.4844 H         1 UNK         0.0819 
     93 H93        22.7654    1.1211   -7.3822 H         1 UNK         0.0819 
     94 H94        22.3516   -0.3157   -5.3866 H         1 UNK         0.3041 
     95 H95        22.0980   -1.3290   -1.9767 H         1 UNK         0.0784 
     96 H96        19.9293   -0.2294   -2.5565 H         1 UNK         0.0793 
     97 H97        20.0004   -0.9060   -4.1774 H         1 UNK         0.0793 
     98 H98        19.8413   -1.9681   -2.7781 H         1 UNK         0.0793 
     99 H99        21.6958   -2.7160   -4.4475 H         1 UNK         0.3024 
    100 H100       23.3058   -4.6679   -4.6505 H         1 UNK         0.1171 
    101 H101       24.2247   -3.9975   -6.9585 H         1 UNK         0.0786 
    102 H102       22.7976   -3.1000   -6.4784 H         1 UNK         0.0786 
    103 H103       24.3798   -2.3480   -6.3502 H         1 UNK         0.0786 
    104 H104       26.0831   -3.8644   -5.1831 H         1 UNK         0.2977 
    105 H105       27.5419    2.4298   -4.4034 H         1 UNK         0.3127 
    106 H106       30.1098    2.2448   -5.5886 H         1 UNK         0.0770 
    107 H107       28.2533    4.6679   -5.2999 H         1 UNK         0.0814 
    108 H108       29.9723    4.7360   -5.6645 H         1 UNK         0.0814 
    109 H109       29.4372    4.1183   -4.1110 H         1 UNK         0.0814 
    110 H110       26.9300    2.5571   -7.0696 H         1 UNK         0.2983 
    111 H111       27.9684    3.3236   -9.7092 H         1 UNK         0.0947 
    112 H112       25.6006    3.0970  -10.4057 H         1 UNK         0.0806 
    113 H113       25.7165    4.1089   -8.9751 H         1 UNK         0.0806 
    114 H114       25.1627    2.4406   -8.8368 H         1 UNK         0.0806 
    115 H115       26.6459    0.4215   -8.0774 H         1 UNK         0.3000 
    116 H116       26.8065   -1.2961  -10.3532 H         1 UNK         0.0850 
    117 H117       26.3666   -3.0929   -8.6305 H         1 UNK         0.0810 
    118 H118       25.2453   -1.7419   -8.5325 H         1 UNK         0.0810 
    119 H119       26.5582   -1.8849   -7.3650 H         1 UNK         0.0810 
    120 H120       28.9993   -0.9604   -7.4854 H         1 UNK         0.3040 
    121 H121       30.8383   -2.9678   -8.5324 H         1 UNK         0.0766 
    122 H122       30.3632   -2.6594   -6.0768 H         1 UNK         0.0812 
    123 H123       31.1124   -1.0737   -6.1425 H         1 UNK         0.0812 
    124 H124       32.0741   -2.5115   -6.4530 H         1 UNK         0.0812 
    125 H125       30.5038    0.4348   -8.9396 H         1 UNK         0.3205 
    126 H126       31.5774    2.0445   -9.9623 H         1 UNK         0.0754 
    127 H127       32.1053    0.4633  -11.8048 H         1 UNK         0.0769 
    128 H128       33.6116    0.0086  -11.0095 H         1 UNK         0.0769 
    129 H129       33.3832    1.6491  -11.5905 H         1 UNK         0.0769 
    130 H130       33.7922   -0.0702   -8.1991 H         1 UNK         0.2981 
    131 H131       35.2350    0.2237   -6.5743 H         1 UNK         0.0541 
    132 H132       36.0476    1.3576   -9.3763 H         1 UNK         0.3459 
    133 H133       37.5413    2.1740   -8.9825 H         1 UNK         0.3459 
    134 H134       34.9998    2.0575   -4.9373 H         1 UNK         0.0612 
    135 H135       34.0688    2.9985   -6.0705 H         1 UNK         0.0612 
    136 H136       33.7660    0.9910   -2.9936 H         1 UNK         0.0624 
    137 H137       34.1523   -0.3815   -4.0096 H         1 UNK         0.0624 
@<TRIPOS>BOND
     1    1    2 1    
     2    1   72 1    
     3    1   73 1    
     4    1   74 1    
     5    2    3 2    
     6    2    4 am   BACKBONE|DICT|INTERRES
     7    4    5 1    
     8    4   75 1    
     9    5    6 1    
    10    5   35 1    
    11    5   76 1    
    12    6    7 1    
    13    6   77 1    
    14    6   78 1    
    15    7    8 1    
    16    8    9 1    
    17    8   79 1    
    18    8   80 1    
    19    9   10 ar   
    20    9   14 ar   
    21   10   11 ar   
    22   10   81 1    
    23   11   12 ar   
    24   11   71 1    
    25   12   13 ar   
    26   12   82 1    
    27   13   14 ar   
    28   13   15 1    
    29   14   83 1    
    30   15   16 1    
    31   15   84 1    
    32   15   85 1    
    33   16   17 1    
    34   17   18 1    
    35   17   86 1    
    36   17   87 1    
    37   18   19 1    
    38   18   37 1    
    39   18   88 1    
    40   19   20 am   BACKBONE|DICT|INTERRES
    41   19   89 1    
    42   20   21 2    
    43   20   22 1    
    44   22   23 1    
    45   22   24 1    
    46   22   90 1    
    47   23   91 1    
    48   23   92 1    
    49   23   93 1    
    50   24   25 am   BACKBONE|DICT|INTERRES
    51   24   94 1    
    52   25   26 2    
    53   25   27 1    
    54   27   28 1    
    55   27   29 1    
    56   27   95 1    
    57   28   96 1    
    58   28   97 1    
    59   28   98 1    
    60   29   30 am   BACKBONE|DICT|INTERRES
    61   29   99 1    
    62   30   31 2    
    63   30   32 1    
    64   32   33 1    
    65   32   34 1    
    66   32  100 1    
    67   33  101 1    
    68   33  102 1    
    69   33  103 1    
    70   34   35 am   BACKBONE|DICT|INTERRES
    71   34  104 1    
    72   35   36 2    
    73   37   38 2    
    74   37   39 am   BACKBONE|DICT|INTERRES
    75   39   40 1    
    76   39  105 1    
    77   40   41 1    
    78   40   42 1    
    79   40  106 1    
    80   41  107 1    
    81   41  108 1    
    82   41  109 1    
    83   42   43 2    
    84   42   44 am   BACKBONE|DICT|INTERRES
    85   44   45 1    
    86   44  110 1    
    87   45   46 1    
    88   45   47 1    
    89   45  111 1    
    90   46  112 1    
    91   46  113 1    
    92   46  114 1    
    93   47   48 2    
    94   47   49 am   BACKBONE|DICT|INTERRES
    95   49   50 1    
    96   49  115 1    
    97   50   51 1    
    98   50   52 1    
    99   50  116 1    
   100   51  117 1    
   101   51  118 1    
   102   51  119 1    
   103   52   53 2    
   104   52   54 am   BACKBONE|DICT|INTERRES
   105   54   55 1    
   106   54  120 1    
   107   55   56 1    
   108   55   57 1    
   109   55  121 1    
   110   56  122 1    
   111   56  123 1    
   112   56  124 1    
   113   57   58 2    
   114   57   59 am   BACKBONE|DICT|INTERRES
   115   59   60 1    
   116   59  125 1    
   117   60   61 1    
   118   60   62 1    
   119   60  126 1    
   120   61  127 1    
   121   61  128 1    
   122   61  129 1    
   123   62   63 2    
   124   62   64 am   BACKBONE|DICT|INTERRES
   125   64   65 1    
   126   64  130 1    
   127   65   66 1    
   128   65   69 1    
   129   65  131 1    
   130   66   67 am   BACKBONE|DICT|INTERRES
   131   66   68 2    
   132   67  132 1    
   133   67  133 1    
   134   69   70 1    
   135   69  134 1    
   136   69  135 1    
   137   70   71 1    
   138   71  136 1    
   139   71  137 1    
@<TRIPOS>SUBSTRUCTURE
     1 UNK         1 GROUP             0       ****    0 ROOT    
