@<TRIPOS>MOLECULE
3R137
137   139    1
SMALL
USER_CHARGES


@<TRIPOS>ATOM
      1 CA         30.2243    0.3219   -1.7354 C.3       0 UNK        -0.2020 
      2 C          29.4585   -0.9777   -1.9313 C.2       0 UNK         0.4855 
      3 O          28.9430   -1.2325   -3.0181 O.2       0 UNK        -0.5197 
      4 N          29.3664   -1.8049   -0.8832 N.am      1 UNK        -0.4892 
      5 CA         28.7078   -3.1162   -0.9124 C.3       1 UNK         0.0835 
      6 C6         29.3179   -4.1080    0.1136 C.3       12 UNK        -0.0855 
      7 S7         31.1384   -4.2377    0.0077 S.3       12 UNK        -0.2931 
      8 C8         31.3733   -5.5153   -1.2703 C.3       12 UNK         0.0378 
      9 C9         31.0696   -4.9978   -2.6712 C.ar      12 UNK        -0.0802 
     10 C10        31.8930   -4.0335   -3.2599 C.ar      12 UNK        -0.0944 
     11 C11        31.6374   -3.5739   -4.5552 C.ar      12 UNK        -0.0787 
     12 C12        30.5411   -4.0793   -5.2604 C.ar      12 UNK        -0.0862 
     13 C13        29.7008   -5.0424   -4.6823 C.ar      12 UNK        -0.0733 
     14 C14        29.9812   -5.5003   -3.3904 C.ar      12 UNK        -0.0832 
     15 C15        28.5179   -5.6603   -5.4295 C.3       12 UNK         0.0240 
     16 S16        27.8382   -4.6596   -6.7935 S.3       12 UNK        -0.2522 
     17 C17        26.9105   -3.3806   -5.8851 C.3       12 UNK        -0.0967 
     18 CA         26.5273   -2.2085   -6.8247 C.3       5 UNK         0.0660 
     19 N          25.2121   -1.6426   -6.5195 N.am      5 UNK        -0.4015 
     20 C          24.4922   -0.9045   -7.3768 C.2       4 UNK         0.4946 
     21 O          24.8504   -0.6466   -8.5263 O.2       4 UNK        -0.5353 
     22 CA         23.1551   -0.3428   -6.8635 C.3       4 UNK         0.0277 
     23 CB         22.0274   -1.3681   -7.0624 C.3       4 UNK        -0.1981 
     24 N          23.2081    0.0627   -5.4569 N.am      4 UNK        -0.4209 
     25 C          23.9100    1.1116   -5.0061 C.2       3 UNK         0.4942 
     26 O          24.5512    1.8700   -5.7341 O.2       3 UNK        -0.5208 
     27 CA         23.9412    1.3202   -3.4803 C.3       3 UNK         0.0250 
     28 CB         22.6940    2.0896   -3.0160 C.3       3 UNK        -0.1990 
     29 N          24.0862    0.0885   -2.6874 N.am      3 UNK        -0.4232 
     30 C          25.0653   -0.8123   -2.8478 C.2       2 UNK         0.4993 
     31 O          25.8782   -0.7771   -3.7723 O.2       2 UNK        -0.5286 
     32 CA         25.1526   -1.9633   -1.8426 C.3       2 UNK         0.0209 
     33 CB         24.2930   -3.1575   -2.2932 C.3       2 UNK        -0.1931 
     34 N          26.5572   -2.3524   -1.7751 N.am      2 UNK        -0.4546 
     35 C          27.1789   -2.9599   -0.7625 C.2       1 UNK         0.5154 
     36 O          26.6040   -3.3470    0.2570 O.2       1 UNK        -0.5181 
     37 C          27.6039   -1.1100   -6.8573 C.2       5 UNK         0.5014 
     38 O          28.4156   -1.0942   -7.7811 O.2       5 UNK        -0.5248 
     39 N          27.5439   -0.1764   -5.8968 N.am      6 UNK        -0.4434 
     40 CA         28.3723    1.0272   -5.8285 C.3       6 UNK         0.0363 
     41 CB         28.0204    1.8327   -4.5678 C.3       6 UNK        -0.1936 
     42 C          28.2270    1.9019   -7.0810 C.2       6 UNK         0.5081 
     43 O          29.2369    2.3178   -7.6435 O.2       6 UNK        -0.5248 
     44 N          26.9815    2.1232   -7.5265 N.am      7 UNK        -0.4718 
     45 CA         26.6646    2.8460   -8.7604 C.3       7 UNK         0.0273 
     46 CB         25.1466    3.0685   -8.8507 C.3       7 UNK        -0.1935 
     47 C          27.1886    2.1480  -10.0286 C.2       7 UNK         0.5018 
     48 O          27.6717    2.8316  -10.9318 O.2       7 UNK        -0.5186 
     49 N          27.0883    0.8121  -10.0752 N.am      8 UNK        -0.4240 
     50 CA         27.5530   -0.0112  -11.1926 C.3       8 UNK         0.0235 
     51 CB         26.9116   -1.4065  -11.1090 C.3       8 UNK        -0.2000 
     52 C          29.0855   -0.1184  -11.2639 C.2       8 UNK         0.4941 
     53 O          29.6572    0.1038  -12.3321 O.2       8 UNK        -0.5273 
     54 N          29.7202   -0.4792  -10.1409 N.am      9 UNK        -0.4262 
     55 CA         31.1582   -0.7477  -10.0513 C.3       9 UNK         0.0264 
     56 CB         31.4102   -1.7342   -8.8982 C.3       9 UNK        -0.1955 
     57 C          32.0169    0.5140   -9.8657 C.2       9 UNK         0.5031 
     58 O          33.2265    0.4386  -10.0850 O.2       9 UNK        -0.5390 
     59 N          31.4010    1.6263   -9.4367 N.am      10 UNK        -0.4204 
     60 CA         32.0214    2.9048   -9.0595 C.3       10 UNK         0.0237 
     61 CB         32.7839    3.5406  -10.2427 C.3       10 UNK        -0.1985 
     62 C          32.8689    2.8215   -7.7716 C.2       10 UNK         0.4970 
     63 O          33.6976    3.7040   -7.5388 O.2       10 UNK        -0.4914 
     64 N          32.6525    1.7795   -6.9570 N.am      11 UNK        -0.4285 
     65 CA         33.3098    1.5753   -5.6606 C.3       11 UNK         0.1007 
     66 C          32.6467    2.3822   -4.5077 C.2       11 UNK         0.5703 
     67 N          33.2962    2.4566   -3.3533 N.am      11 UNK        -0.7361 
     68 O          31.5558    2.9344   -4.6381 O.2       11 UNK        -0.4986 
     69 C69        33.4838    0.0656   -5.3411 C.3       12 UNK        -0.0947 
     70 S70        31.9349   -0.8648   -5.0866 S.3       12 UNK        -0.2240 
     71 C71        32.5724   -2.5638   -5.2049 C.3       12 UNK         0.0194 
     72 H72        30.8490    0.5243   -2.6047 H         1 UNK         0.0906 
     73 H73        29.5310    1.1535   -1.6155 H         1 UNK         0.0906 
     74 H74        30.8705    0.2826   -0.8589 H         1 UNK         0.0906 
     75 H75        29.7952   -1.5530   -0.0041 H         1 UNK         0.3140 
     76 H76        28.8633   -3.5450   -1.9024 H         1 UNK         0.1085 
     77 H77        29.0761   -3.7966    1.1316 H         1 UNK         0.0836 
     78 H78        28.8809   -5.1008   -0.0089 H         1 UNK         0.0836 
     79 H79        32.4103   -5.8524   -1.2387 H         1 UNK         0.0731 
     80 H80        30.7642   -6.3880   -1.0296 H         1 UNK         0.0731 
     81 H81        32.7392   -3.6466   -2.7085 H         1 UNK         0.1312 
     82 H82        30.3585   -3.7227   -6.2643 H         1 UNK         0.1406 
     83 H83        29.3500   -6.2570   -2.9436 H         1 UNK         0.1631 
     84 H84        28.8425   -6.6165   -5.8416 H         1 UNK         0.0717 
     85 H85        27.7094   -5.8845   -4.7317 H         1 UNK         0.0717 
     86 H86        26.0159   -3.8612   -5.4863 H         1 UNK         0.0934 
     87 H87        27.4807   -3.0411   -5.0163 H         1 UNK         0.0934 
     88 H88        26.4500   -2.6003   -7.8418 H         1 UNK         0.0739 
     89 H89        24.9046   -1.7130   -5.5599 H         1 UNK         0.3093 
     90 H90        22.9200    0.5410   -7.4610 H         1 UNK         0.0818 
     91 H91        21.0594   -0.9528   -6.7814 H         1 UNK         0.0819 
     92 H92        21.9567   -1.6699   -8.1085 H         1 UNK         0.0819 
     93 H93        22.1902   -2.2715   -6.4732 H         1 UNK         0.0819 
     94 H94        22.7066   -0.5054   -4.7896 H         1 UNK         0.3041 
     95 H95        24.8155    1.9378   -3.2647 H         1 UNK         0.0784 
     96 H96        22.5742    3.0159   -3.5801 H         1 UNK         0.0793 
     97 H97        21.7832    1.5051   -3.1518 H         1 UNK         0.0793 
     98 H98        22.7646    2.3626   -1.9629 H         1 UNK         0.0793 
     99 H99        23.4412   -0.0273   -1.9185 H         1 UNK         0.3024 
    100 H100       24.8259   -1.6103   -0.8618 H         1 UNK         0.1171 
    101 H101       24.3577   -3.9822   -1.5832 H         1 UNK         0.0786 
    102 H102       23.2413   -2.8785   -2.3684 H         1 UNK         0.0786 
    103 H103       24.6044   -3.5328   -3.2687 H         1 UNK         0.0786 
    104 H104       27.1294   -1.9750   -2.5305 H         1 UNK         0.2977 
    105 H105       26.8828   -0.3150   -5.1316 H         1 UNK         0.3127 
    106 H106       29.4126    0.7055   -5.7541 H         1 UNK         0.0770 
    107 H107       27.0059    2.2286   -4.6080 H         1 UNK         0.0814 
    108 H108       28.6990    2.6781   -4.4479 H         1 UNK         0.0814 
    109 H109       28.0997    1.2214   -3.6707 H         1 UNK         0.0814 
    110 H110       26.1974    1.7858   -6.9763 H         1 UNK         0.2983 
    111 H111       27.1491    3.8232   -8.7024 H         1 UNK         0.0947 
    112 H112       24.8855    3.6242   -9.7523 H         1 UNK         0.0806 
    113 H113       24.7789    3.6407   -7.9988 H         1 UNK         0.0806 
    114 H114       24.6013    2.1244   -8.8783 H         1 UNK         0.0806 
    115 H115       26.6377    0.3302   -9.3053 H         1 UNK         0.3000 
    116 H116       27.2121    0.4560  -12.1193 H         1 UNK         0.0850 
    117 H117       27.2310   -2.0344  -11.9418 H         1 UNK         0.0810 
    118 H118       25.8239   -1.3441  -11.1481 H         1 UNK         0.0810 
    119 H119       27.1814   -1.9232  -10.1874 H         1 UNK         0.0810 
    120 H120       29.1731   -0.6581   -9.2962 H         1 UNK         0.3040 
    121 H121       31.4827   -1.2264  -10.9778 H         1 UNK         0.0766 
    122 H122       30.8609   -2.6645   -9.0436 H         1 UNK         0.0812 
    123 H123       31.1052   -1.3159   -7.9389 H         1 UNK         0.0812 
    124 H124       32.4680   -1.9893   -8.8216 H         1 UNK         0.0812 
    125 H125       30.4105    1.5695   -9.2221 H         1 UNK         0.3205 
    126 H126       31.1953    3.5757   -8.8216 H         1 UNK         0.0754 
    127 H127       33.0763    4.5657  -10.0124 H         1 UNK         0.0769 
    128 H128       32.1656    3.5759  -11.1397 H         1 UNK         0.0769 
    129 H129       33.6953    2.9928  -10.4829 H         1 UNK         0.0769 
    130 H130       31.9101    1.1352   -7.1816 H         1 UNK         0.2981 
    131 H131       34.3194    1.9808   -5.7510 H         1 UNK         0.0541 
    132 H132       32.8834    2.9758   -2.5949 H         1 UNK         0.3459 
    133 H133       34.1912    2.0112   -3.2267 H         1 UNK         0.3459 
    134 H134       34.0370   -0.4085   -6.1536 H         1 UNK         0.0612 
    135 H135       34.1030   -0.0624   -4.4518 H         1 UNK         0.0612 
    136 H136       33.5546   -2.6148   -4.7323 H         1 UNK         0.0624 
    137 H137       32.7247   -2.8165   -6.2550 H         1 UNK         0.0624 
@<TRIPOS>BOND
     1    1    2 1    
     2    1   72 1    
     3    1   73 1    
     4    1   74 1    
     5    2    3 2    
     6    2    4 am   BACKBONE|DICT|INTERRES
     7    4    5 1    
     8    4   75 1    
     9    5    6 1    
    10    5   35 1    
    11    5   76 1    
    12    6    7 1    
    13    6   77 1    
    14    6   78 1    
    15    7    8 1    
    16    8    9 1    
    17    8   79 1    
    18    8   80 1    
    19    9   10 ar   
    20    9   14 ar   
    21   10   11 ar   
    22   10   81 1    
    23   11   12 ar   
    24   11   71 1    
    25   12   13 ar   
    26   12   82 1    
    27   13   14 ar   
    28   13   15 1    
    29   14   83 1    
    30   15   16 1    
    31   15   84 1    
    32   15   85 1    
    33   16   17 1    
    34   17   18 1    
    35   17   86 1    
    36   17   87 1    
    37   18   19 1    
    38   18   37 1    
    39   18   88 1    
    40   19   20 am   BACKBONE|DICT|INTERRES
    41   19   89 1    
    42   20   21 2    
    43   20   22 1    
    44   22   23 1    
    45   22   24 1    
    46   22   90 1    
    47   23   91 1    
    48   23   92 1    
    49   23   93 1    
    50   24   25 am   BACKBONE|DICT|INTERRES
    51   24   94 1    
    52   25   26 2    
    53   25   27 1    
    54   27   28 1    
    55   27   29 1    
    56   27   95 1    
    57   28   96 1    
    58   28   97 1    
    59   28   98 1    
    60   29   30 am   BACKBONE|DICT|INTERRES
    61   29   99 1    
    62   30   31 2    
    63   30   32 1    
    64   32   33 1    
    65   32   34 1    
    66   32  100 1    
    67   33  101 1    
    68   33  102 1    
    69   33  103 1    
    70   34   35 am   BACKBONE|DICT|INTERRES
    71   34  104 1    
    72   35   36 2    
    73   37   38 2    
    74   37   39 am   BACKBONE|DICT|INTERRES
    75   39   40 1    
    76   39  105 1    
    77   40   41 1    
    78   40   42 1    
    79   40  106 1    
    80   41  107 1    
    81   41  108 1    
    82   41  109 1    
    83   42   43 2    
    84   42   44 am   BACKBONE|DICT|INTERRES
    85   44   45 1    
    86   44  110 1    
    87   45   46 1    
    88   45   47 1    
    89   45  111 1    
    90   46  112 1    
    91   46  113 1    
    92   46  114 1    
    93   47   48 2    
    94   47   49 am   BACKBONE|DICT|INTERRES
    95   49   50 1    
    96   49  115 1    
    97   50   51 1    
    98   50   52 1    
    99   50  116 1    
   100   51  117 1    
   101   51  118 1    
   102   51  119 1    
   103   52   53 2    
   104   52   54 am   BACKBONE|DICT|INTERRES
   105   54   55 1    
   106   54  120 1    
   107   55   56 1    
   108   55   57 1    
   109   55  121 1    
   110   56  122 1    
   111   56  123 1    
   112   56  124 1    
   113   57   58 2    
   114   57   59 am   BACKBONE|DICT|INTERRES
   115   59   60 1    
   116   59  125 1    
   117   60   61 1    
   118   60   62 1    
   119   60  126 1    
   120   61  127 1    
   121   61  128 1    
   122   61  129 1    
   123   62   63 2    
   124   62   64 am   BACKBONE|DICT|INTERRES
   125   64   65 1    
   126   64  130 1    
   127   65   66 1    
   128   65   69 1    
   129   65  131 1    
   130   66   67 am   BACKBONE|DICT|INTERRES
   131   66   68 2    
   132   67  132 1    
   133   67  133 1    
   134   69   70 1    
   135   69  134 1    
   136   69  135 1    
   137   70   71 1    
   138   71  136 1    
   139   71  137 1    
@<TRIPOS>SUBSTRUCTURE
     1 UNK         1 GROUP             0       ****    0 ROOT    
