@<TRIPOS>MOLECULE
3R137
137   139    1
SMALL
USER_CHARGES


@<TRIPOS>ATOM
      1 CA         25.3505   -5.9273   -5.8780 C.3       0 UNK        -0.2020 
      2 C          25.8752   -5.3331   -4.5802 C.2       0 UNK         0.4855 
      3 O          25.0904   -5.0539   -3.6735 O.2       0 UNK        -0.5197 
      4 N          27.1962   -5.1248   -4.4947 N.am      1 UNK        -0.4892 
      5 CA         27.9207   -4.5471   -3.3544 C.3       1 UNK         0.0835 
      6 C6         29.4517   -4.5380   -3.6277 C.3       12 UNK        -0.0855 
      7 S7         30.4665   -4.9683   -2.1749 S.3       12 UNK        -0.2931 
      8 C8         30.4142   -3.4564   -1.1490 C.3       12 UNK         0.0378 
      9 C9         30.8830   -2.1639   -1.8200 C.ar      12 UNK        -0.0802 
     10 C10        31.8123   -2.1471   -2.8695 C.ar      12 UNK        -0.0944 
     11 C11        32.2165   -0.9374   -3.4475 C.ar      12 UNK        -0.0787 
     12 C12        31.6997    0.2632   -2.9557 C.ar      12 UNK        -0.0862 
     13 C13        30.7697    0.2634   -1.9143 C.ar      12 UNK        -0.0733 
     14 C14        30.3724   -0.9507   -1.3481 C.ar      12 UNK        -0.0832 
     15 C15        30.1667    1.5723   -1.4218 C.3       12 UNK         0.0240 
     16 S16        29.2850    2.4773   -2.7381 S.3       12 UNK        -0.2522 
     17 C17        28.0507    1.2548   -3.2999 C.3       12 UNK        -0.0967 
     18 CA         27.8084    1.3321   -4.8291 C.3       5 UNK         0.0660 
     19 N          27.3793    0.0422   -5.3840 N.am      5 UNK        -0.4015 
     20 C          27.0802   -0.2078   -6.6678 C.2       4 UNK         0.4946 
     21 O          27.1783    0.6229   -7.5674 O.2       4 UNK        -0.5353 
     22 CA         26.4935   -1.5881   -6.9978 C.3       4 UNK         0.0277 
     23 CB         27.5933   -2.6511   -7.1460 C.3       4 UNK        -0.1981 
     24 N          25.5201   -1.9941   -5.9838 N.am      4 UNK        -0.4209 
     25 C          24.2764   -1.4972   -5.8995 C.2       3 UNK         0.4942 
     26 O          23.7836   -0.7460   -6.7404 O.2       3 UNK        -0.5208 
     27 CA         23.4491   -1.8706   -4.6565 C.3       3 UNK         0.0250 
     28 CB         22.5228   -3.0608   -4.9510 C.3       3 UNK        -0.1990 
     29 N          24.2828   -2.1661   -3.4874 N.am      3 UNK        -0.4232 
     30 C          24.9460   -1.2307   -2.7904 C.2       2 UNK         0.4993 
     31 O          24.8866   -0.0262   -3.0423 O.2       2 UNK        -0.5286 
     32 CA         25.8831   -1.7242   -1.6695 C.3       2 UNK         0.0209 
     33 CB         25.1123   -1.8842   -0.3503 C.3       2 UNK        -0.1931 
     34 N          26.5720   -2.9809   -1.9937 N.am      2 UNK        -0.4546 
     35 C          27.3943   -3.1306   -3.0411 C.2       1 UNK         0.5154 
     36 O          27.6775   -2.2057   -3.8012 O.2       1 UNK        -0.5181 
     37 C          26.8251    2.4687   -5.1723 C.2       5 UNK         0.5014 
     38 O          27.2530    3.5265   -5.6355 O.2       5 UNK        -0.5248 
     39 N          25.5206    2.2001   -5.0093 N.am      6 UNK        -0.4434 
     40 CA         24.4208    3.0963   -5.3819 C.3       6 UNK         0.0363 
     41 CB         23.0926    2.4721   -4.9253 C.3       6 UNK        -0.1936 
     42 C          24.3612    3.4499   -6.8834 C.2       6 UNK         0.5081 
     43 O          23.8127    4.4970   -7.2277 O.2       6 UNK        -0.5248 
     44 N          24.9293    2.5942   -7.7433 N.am      7 UNK        -0.4718 
     45 CA         25.0513    2.7972   -9.1890 C.3       7 UNK         0.0273 
     46 CB         24.7082    1.4716   -9.8924 C.3       7 UNK        -0.1935 
     47 C          26.4565    3.2819   -9.6017 C.2       7 UNK         0.5018 
     48 O          26.6920    3.4548  -10.7984 O.2       7 UNK        -0.5186 
     49 N          27.3629    3.4726   -8.6281 N.am      8 UNK        -0.4240 
     50 CA         28.7904    3.7870   -8.7775 C.3       8 UNK         0.0235 
     51 CB         28.9861    5.2009   -9.3659 C.3       8 UNK        -0.2000 
     52 C          29.5781    2.6975   -9.5383 C.2       8 UNK         0.4941 
     53 O          30.4918    3.0191  -10.3014 O.2       8 UNK        -0.5273 
     54 N          29.2072    1.4312   -9.3183 N.am      9 UNK        -0.4262 
     55 CA         29.8047    0.2384   -9.9155 C.3       9 UNK         0.0264 
     56 CB         28.6716   -0.5788  -10.5663 C.3       9 UNK        -0.1955 
     57 C          30.5567   -0.5848   -8.8524 C.2       9 UNK         0.5031 
     58 O          30.5593   -0.2206   -7.6736 O.2       9 UNK        -0.5390 
     59 N          31.1677   -1.6907   -9.3066 N.am      10 UNK        -0.4204 
     60 CA         31.9991   -2.6471   -8.5584 C.3       10 UNK         0.0237 
     61 CB         31.2169   -3.2862   -7.3854 C.3       10 UNK        -0.1985 
     62 C          33.3658   -2.0679   -8.1354 C.2       10 UNK         0.4970 
     63 O          33.6923   -0.9290   -8.4770 O.2       10 UNK        -0.4914 
     64 N          34.1606   -2.8939   -7.4387 N.am      11 UNK        -0.4285 
     65 CA         35.5338   -2.6072   -6.9759 C.3       11 UNK         0.1007 
     66 C          36.5811   -2.4234   -8.1197 C.2       11 UNK         0.5703 
     67 N          36.3155   -2.8806   -9.3381 N.am      11 UNK        -0.7361 
     68 O          37.6675   -1.8928   -7.8987 O.2       11 UNK        -0.4986 
     69 C69        35.5994   -1.4749   -5.9079 C.3       12 UNK        -0.0947 
     70 S70        34.6788   -1.8724   -4.3835 S.3       12 UNK        -0.2240 
     71 C71        33.1568   -0.9106   -4.6447 C.3       12 UNK         0.0194 
     72 H72        24.8453   -5.1618   -6.4662 H         1 UNK         0.0906 
     73 H73        26.1513   -6.3493   -6.4849 H         1 UNK         0.0906 
     74 H74        24.6357   -6.7220   -5.6656 H         1 UNK         0.0906 
     75 H75        27.7737   -5.3732   -5.2849 H         1 UNK         0.3140 
     76 H76        27.7161   -5.1917   -2.4968 H         1 UNK         0.1085 
     77 H77        29.7006   -5.2946   -4.3736 H         1 UNK         0.0836 
     78 H78        29.7978   -3.6023   -4.0705 H         1 UNK         0.0836 
     79 H79        31.0361   -3.6241   -0.2688 H         1 UNK         0.0731 
     80 H80        29.3953   -3.3352   -0.7788 H         1 UNK         0.0731 
     81 H81        32.2162   -3.0741   -3.2513 H         1 UNK         0.1312 
     82 H82        31.9929    1.2026   -3.4046 H         1 UNK         0.1406 
     83 H83        29.6527   -0.9521   -0.5405 H         1 UNK         0.1631 
     84 H84        30.9633    2.2059   -1.0298 H         1 UNK         0.0717 
     85 H85        29.4764    1.3983   -0.5949 H         1 UNK         0.0717 
     86 H86        28.4043    0.2576   -3.0423 H         1 UNK         0.0934 
     87 H87        27.1304    1.3905   -2.7289 H         1 UNK         0.0934 
     88 H88        28.7562    1.5568   -5.3236 H         1 UNK         0.0739 
     89 H89        27.3539   -0.7400   -4.7313 H         1 UNK         0.3093 
     90 H90        25.9781   -1.5093   -7.9579 H         1 UNK         0.0818 
     91 H91        27.1724   -3.6301   -7.3736 H         1 UNK         0.0819 
     92 H92        28.2661   -2.3930   -7.9630 H         1 UNK         0.0819 
     93 H93        28.2047   -2.7446   -6.2493 H         1 UNK         0.0819 
     94 H94        25.8691   -2.5534   -5.2188 H         1 UNK         0.3041 
     95 H95        22.8207   -1.0101   -4.4154 H         1 UNK         0.0784 
     96 H96        21.8655   -2.8428   -5.7939 H         1 UNK         0.0793 
     97 H97        23.0820   -3.9620   -5.2000 H         1 UNK         0.0793 
     98 H98        21.8865   -3.2881   -4.0956 H         1 UNK         0.0793 
     99 H99        24.4224   -3.1456   -3.2571 H         1 UNK         0.3024 
    100 H100       26.6464   -0.9563   -1.5268 H         1 UNK         0.1171 
    101 H101       25.7813   -2.1386    0.4720 H         1 UNK         0.0786 
    102 H102       24.6072   -0.9559   -0.0791 H         1 UNK         0.0786 
    103 H103       24.3508   -2.6622   -0.4181 H         1 UNK         0.0786 
    104 H104       26.3282   -3.7913   -1.4416 H         1 UNK         0.2977 
    105 H105       25.2624    1.3221   -4.5686 H         1 UNK         0.3127 
    106 H106       24.5652    4.0310   -4.8363 H         1 UNK         0.0770 
    107 H107       22.8959    1.5288   -5.4357 H         1 UNK         0.0814 
    108 H108       22.2549    3.1380   -5.1367 H         1 UNK         0.0814 
    109 H109       23.0909    2.2793   -3.8522 H         1 UNK         0.0814 
    110 H110       25.3901    1.7679   -7.3790 H         1 UNK         0.2983 
    111 H111       24.3391    3.5545   -9.5233 H         1 UNK         0.0947 
    112 H112       25.4230    0.6862   -9.6442 H         1 UNK         0.0806 
    113 H113       24.7165    1.5882  -10.9769 H         1 UNK         0.0806 
    114 H114       23.7152    1.1194   -9.6124 H         1 UNK         0.0806 
    115 H115       27.0643    3.3097   -7.6721 H         1 UNK         0.3000 
    116 H116       29.1993    3.7948   -7.7659 H         1 UNK         0.0850 
    117 H117       28.4339    5.9475   -8.7952 H         1 UNK         0.0810 
    118 H118       28.6554    5.2578  -10.4033 H         1 UNK         0.0810 
    119 H119       30.0373    5.4909   -9.3444 H         1 UNK         0.0810 
    120 H120       28.4766    1.2459   -8.6305 H         1 UNK         0.3040 
    121 H121       30.5240    0.5192  -10.6874 H         1 UNK         0.0766 
    122 H122       29.0491   -1.4694  -11.0692 H         1 UNK         0.0812 
    123 H123       28.1465    0.0121  -11.3172 H         1 UNK         0.0812 
    124 H124       27.9342   -0.9029   -9.8319 H         1 UNK         0.0812 
    125 H125       31.1238   -1.8642  -10.3010 H         1 UNK         0.3205 
    126 H126       32.2272   -3.4457   -9.2659 H         1 UNK         0.0754 
    127 H127       31.7899   -4.0733   -6.8950 H         1 UNK         0.0769 
    128 H128       30.2962   -3.7485   -7.7394 H         1 UNK         0.0769 
    129 H129       30.9494   -2.5591   -6.6188 H         1 UNK         0.0769 
    130 H130       33.8233   -3.8207   -7.2244 H         1 UNK         0.2981 
    131 H131       35.8578   -3.5223   -6.4792 H         1 UNK         0.0541 
    132 H132       37.0030   -2.7679  -10.0664 H         1 UNK         0.3459 
    133 H133       35.4393   -3.3350   -9.5368 H         1 UNK         0.3459 
    134 H134       36.6316   -1.3027   -5.5986 H         1 UNK         0.0612 
    135 H135       35.2535   -0.5268   -6.3215 H         1 UNK         0.0612 
    136 H136       32.6213   -1.3020   -5.5072 H         1 UNK         0.0624 
    137 H137       33.4316    0.1160   -4.8916 H         1 UNK         0.0624 
@<TRIPOS>BOND
     1    1    2 1    
     2    1   72 1    
     3    1   73 1    
     4    1   74 1    
     5    2    3 2    
     6    2    4 am   BACKBONE|DICT|INTERRES
     7    4    5 1    
     8    4   75 1    
     9    5    6 1    
    10    5   35 1    
    11    5   76 1    
    12    6    7 1    
    13    6   77 1    
    14    6   78 1    
    15    7    8 1    
    16    8    9 1    
    17    8   79 1    
    18    8   80 1    
    19    9   10 ar   
    20    9   14 ar   
    21   10   11 ar   
    22   10   81 1    
    23   11   12 ar   
    24   11   71 1    
    25   12   13 ar   
    26   12   82 1    
    27   13   14 ar   
    28   13   15 1    
    29   14   83 1    
    30   15   16 1    
    31   15   84 1    
    32   15   85 1    
    33   16   17 1    
    34   17   18 1    
    35   17   86 1    
    36   17   87 1    
    37   18   19 1    
    38   18   37 1    
    39   18   88 1    
    40   19   20 am   BACKBONE|DICT|INTERRES
    41   19   89 1    
    42   20   21 2    
    43   20   22 1    
    44   22   23 1    
    45   22   24 1    
    46   22   90 1    
    47   23   91 1    
    48   23   92 1    
    49   23   93 1    
    50   24   25 am   BACKBONE|DICT|INTERRES
    51   24   94 1    
    52   25   26 2    
    53   25   27 1    
    54   27   28 1    
    55   27   29 1    
    56   27   95 1    
    57   28   96 1    
    58   28   97 1    
    59   28   98 1    
    60   29   30 am   BACKBONE|DICT|INTERRES
    61   29   99 1    
    62   30   31 2    
    63   30   32 1    
    64   32   33 1    
    65   32   34 1    
    66   32  100 1    
    67   33  101 1    
    68   33  102 1    
    69   33  103 1    
    70   34   35 am   BACKBONE|DICT|INTERRES
    71   34  104 1    
    72   35   36 2    
    73   37   38 2    
    74   37   39 am   BACKBONE|DICT|INTERRES
    75   39   40 1    
    76   39  105 1    
    77   40   41 1    
    78   40   42 1    
    79   40  106 1    
    80   41  107 1    
    81   41  108 1    
    82   41  109 1    
    83   42   43 2    
    84   42   44 am   BACKBONE|DICT|INTERRES
    85   44   45 1    
    86   44  110 1    
    87   45   46 1    
    88   45   47 1    
    89   45  111 1    
    90   46  112 1    
    91   46  113 1    
    92   46  114 1    
    93   47   48 2    
    94   47   49 am   BACKBONE|DICT|INTERRES
    95   49   50 1    
    96   49  115 1    
    97   50   51 1    
    98   50   52 1    
    99   50  116 1    
   100   51  117 1    
   101   51  118 1    
   102   51  119 1    
   103   52   53 2    
   104   52   54 am   BACKBONE|DICT|INTERRES
   105   54   55 1    
   106   54  120 1    
   107   55   56 1    
   108   55   57 1    
   109   55  121 1    
   110   56  122 1    
   111   56  123 1    
   112   56  124 1    
   113   57   58 2    
   114   57   59 am   BACKBONE|DICT|INTERRES
   115   59   60 1    
   116   59  125 1    
   117   60   61 1    
   118   60   62 1    
   119   60  126 1    
   120   61  127 1    
   121   61  128 1    
   122   61  129 1    
   123   62   63 2    
   124   62   64 am   BACKBONE|DICT|INTERRES
   125   64   65 1    
   126   64  130 1    
   127   65   66 1    
   128   65   69 1    
   129   65  131 1    
   130   66   67 am   BACKBONE|DICT|INTERRES
   131   66   68 2    
   132   67  132 1    
   133   67  133 1    
   134   69   70 1    
   135   69  134 1    
   136   69  135 1    
   137   70   71 1    
   138   71  136 1    
   139   71  137 1    
@<TRIPOS>SUBSTRUCTURE
     1 UNK         1 GROUP             0       ****    0 ROOT    
