@<TRIPOS>MOLECULE
3R137
137   139    1
SMALL
USER_CHARGES


@<TRIPOS>ATOM
      1 CA         23.6729   -4.9344    0.1836 C.3       0 UNK        -0.2020 
      2 C          25.0130   -4.4015    0.6687 C.2       0 UNK         0.4855 
      3 O          25.0781   -3.8045    1.7428 O.2       0 UNK        -0.5197 
      4 N          26.0787   -4.6228   -0.1121 N.am      1 UNK        -0.4892 
      5 CA         27.4358   -4.1355    0.1517 C.3       1 UNK         0.0835 
      6 C6         28.4886   -5.0799   -0.4866 C.3       12 UNK        -0.0855 
      7 S7         30.2213   -4.5903   -0.1766 S.3       12 UNK        -0.2931 
      8 C8         31.0360   -5.0824   -1.7318 C.3       12 UNK         0.0378 
      9 C9         30.7173   -4.1323   -2.8788 C.ar      12 UNK        -0.0802 
     10 C10        31.4455   -2.9463   -3.0306 C.ar      12 UNK        -0.0944 
     11 C11        31.1769   -2.0738   -4.0911 C.ar      12 UNK        -0.0787 
     12 C12        30.1545   -2.3948   -4.9891 C.ar      12 UNK        -0.0862 
     13 C13        29.4227   -3.5750   -4.8527 C.ar      12 UNK        -0.0733 
     14 C14        29.7151   -4.4482   -3.8029 C.ar      12 UNK        -0.0832 
     15 C15        28.3291   -3.8989   -5.8551 C.3       12 UNK         0.0240 
     16 S16        26.7396   -3.1698   -5.3489 S.3       12 UNK        -0.2522 
     17 C17        25.9449   -2.9380   -6.9813 C.3       12 UNK        -0.0967 
     18 CA         25.8225   -1.4571   -7.4232 C.3       5 UNK         0.0660 
     19 N          24.8958   -0.7107   -6.5639 N.am      5 UNK        -0.4015 
     20 C          24.4801    0.5507   -6.7397 C.2       4 UNK         0.4946 
     21 O          24.8671    1.2703   -7.6618 O.2       4 UNK        -0.5353 
     22 CA         23.5019    1.1317   -5.7008 C.3       4 UNK         0.0277 
     23 CB         22.0422    0.8289   -6.0910 C.3       4 UNK        -0.1981 
     24 N          23.7792    0.7545   -4.3040 N.am      4 UNK        -0.4209 
     25 C          23.7049   -0.4527   -3.7260 C.2       3 UNK         0.4942 
     26 O          23.3999   -1.4872   -4.3227 O.2       3 UNK        -0.5208 
     27 CA         24.0993   -0.5268   -2.2436 C.3       3 UNK         0.0250 
     28 CB         23.1400   -1.4281   -1.4463 C.3       3 UNK        -0.1990 
     29 N          25.4588   -1.0445   -2.1091 N.am      3 UNK        -0.4232 
     30 C          26.5800   -0.3786   -2.4168 C.2       2 UNK         0.4993 
     31 O          26.5821    0.7782   -2.8398 O.2       2 UNK        -0.5286 
     32 CA         27.9190   -1.1275   -2.2596 C.3       2 UNK         0.0209 
     33 CB         29.0130   -0.2479   -1.6133 C.3       2 UNK        -0.1931 
     34 N          27.8133   -2.4307   -1.5824 N.am      2 UNK        -0.4546 
     35 C          27.5292   -2.6591   -0.2897 C.2       1 UNK         0.5154 
     36 O          27.3001   -1.7692    0.5305 O.2       1 UNK        -0.5181 
     37 C          27.2013   -0.7804   -7.5907 C.2       5 UNK         0.5014 
     38 O          27.8509   -0.9786   -8.6170 O.2       5 UNK        -0.5248 
     39 N          27.6003    0.0407   -6.6088 N.am      6 UNK        -0.4434 
     40 CA         28.7988    0.8801   -6.6096 C.3       6 UNK         0.0363 
     41 CB         28.8605    1.6357   -5.2775 C.3       6 UNK        -0.1936 
     42 C          28.8962    1.8552   -7.7934 C.2       6 UNK         0.5081 
     43 O          30.0103    2.1524   -8.2249 O.2       6 UNK        -0.5248 
     44 N          27.7487    2.3027   -8.3246 N.am      7 UNK        -0.4718 
     45 CA         27.6790    3.1496   -9.5178 C.3       7 UNK         0.0273 
     46 CB         26.2763    3.7683   -9.6229 C.3       7 UNK        -0.1935 
     47 C          28.0333    2.3924  -10.8101 C.2       7 UNK         0.5018 
     48 O          28.5796    3.0006  -11.7305 O.2       7 UNK        -0.5186 
     49 N          27.7265    1.0883  -10.8552 N.am      8 UNK        -0.4240 
     50 CA         28.0532    0.1988  -11.9708 C.3       8 UNK         0.0235 
     51 CB         27.0114   -0.9295  -12.0530 C.3       8 UNK        -0.2000 
     52 C          29.4700   -0.3755  -11.8280 C.2       8 UNK         0.4941 
     53 O          30.2061   -0.4268  -12.8136 O.2       8 UNK        -0.5273 
     54 N          29.8284   -0.7857  -10.6033 N.am      9 UNK        -0.4262 
     55 CA         31.1344   -1.3475  -10.2499 C.3       9 UNK         0.0264 
     56 CB         31.0118   -2.0665   -8.8974 C.3       9 UNK        -0.1955 
     57 C          32.2770   -0.3135  -10.2196 C.2       9 UNK         0.5031 
     58 O          33.4384   -0.7187  -10.2847 O.2       9 UNK        -0.5390 
     59 N          31.9328    0.9808  -10.1305 N.am      10 UNK        -0.4204 
     60 CA         32.8192    2.1468  -10.0473 C.3       10 UNK         0.0237 
     61 CB         33.6843    2.2917  -11.3184 C.3       10 UNK        -0.1985 
     62 C          33.6357    2.1438   -8.7429 C.2       10 UNK         0.4970 
     63 O          34.8682    2.1504   -8.7758 O.2       10 UNK        -0.4914 
     64 N          32.9170    2.1313   -7.6174 N.am      11 UNK        -0.4285 
     65 CA         33.4642    2.1319   -6.2545 C.3       11 UNK         0.1007 
     66 C          32.5661    2.9414   -5.2794 C.2       11 UNK         0.5703 
     67 N          32.6993    2.7522   -3.9732 N.am      11 UNK        -0.7361 
     68 O          31.7775    3.7889   -5.6937 O.2       11 UNK        -0.4986 
     69 C69        33.8845    0.7110   -5.7707 C.3       12 UNK        -0.0947 
     70 S70        32.6062   -0.5786   -5.9569 S.3       12 UNK        -0.2240 
     71 C71        31.9834   -0.7877   -4.2557 C.3       12 UNK         0.0194 
     72 H72        23.3324   -5.7392    0.8346 H         1 UNK         0.0906 
     73 H73        22.9239   -4.1432    0.2029 H         1 UNK         0.0906 
     74 H74        23.7296   -5.3205   -0.8340 H         1 UNK         0.0906 
     75 H75        25.9529   -5.1280   -0.9783 H         1 UNK         0.3140 
     76 H76        27.6064   -4.1495    1.2311 H         1 UNK         0.1085 
     77 H77        28.3624   -6.0840   -0.0781 H         1 UNK         0.0836 
     78 H78        28.3104   -5.1823   -1.5555 H         1 UNK         0.0836 
     79 H79        32.1147   -5.1026   -1.5690 H         1 UNK         0.0731 
     80 H80        30.7518   -6.1049   -1.9858 H         1 UNK         0.0731 
     81 H81        32.2253   -2.7067   -2.3205 H         1 UNK         0.1312 
     82 H82        29.9305   -1.7319   -5.8087 H         1 UNK         0.1406 
     83 H83        29.1620   -5.3730   -3.7095 H         1 UNK         0.1631 
     84 H84        28.2134   -4.9781   -5.9659 H         1 UNK         0.0717 
     85 H85        28.6223   -3.5193   -6.8355 H         1 UNK         0.0717 
     86 H86        26.4758   -3.5130   -7.7424 H         1 UNK         0.0934 
     87 H87        24.9512   -3.3865   -6.9329 H         1 UNK         0.0934 
     88 H88        25.3704   -1.4553   -8.4173 H         1 UNK         0.0739 
     89 H89        24.4970   -1.2198   -5.7773 H         1 UNK         0.3093 
     90 H90        23.6281    2.2151   -5.7381 H         1 UNK         0.0818 
     91 H91        21.3416    1.3049   -5.4050 H         1 UNK         0.0819 
     92 H92        21.8220    1.2053   -7.0910 H         1 UNK         0.0819 
     93 H93        21.8318   -0.2410   -6.0962 H         1 UNK         0.0819 
     94 H94        24.1280    1.5102   -3.7285 H         1 UNK         0.3041 
     95 H95        24.0609    0.4755   -1.8112 H         1 UNK         0.0784 
     96 H96        23.1492   -2.4559   -1.8118 H         1 UNK         0.0793 
     97 H97        23.4014   -1.4468   -0.3879 H         1 UNK         0.0793 
     98 H98        22.1139   -1.0657   -1.5207 H         1 UNK         0.0793 
     99 H99        25.5504   -2.0006   -1.8019 H         1 UNK         0.3024 
    100 H100       28.2407   -1.3460   -3.2774 H         1 UNK         0.1171 
    101 H101       29.1961    0.6546   -2.1952 H         1 UNK         0.0786 
    102 H102       29.9597   -0.7833   -1.5431 H         1 UNK         0.0786 
    103 H103       28.7368    0.0768   -0.6104 H         1 UNK         0.0786 
    104 H104       27.9966   -3.2296   -2.1731 H         1 UNK         0.2977 
    105 H105       26.9904    0.1366   -5.8101 H         1 UNK         0.3127 
    106 H106       29.6712    0.2325   -6.6772 H         1 UNK         0.0770 
    107 H107       27.9677    2.2395   -5.1103 H         1 UNK         0.0814 
    108 H108       29.7158    2.3065   -5.2405 H         1 UNK         0.0814 
    109 H109       28.9595    0.9433   -4.4444 H         1 UNK         0.0814 
    110 H110       26.8658    1.9930   -7.9314 H         1 UNK         0.2983 
    111 H111       28.4022    3.9605   -9.4034 H         1 UNK         0.0947 
    112 H112       26.2080    4.4364  -10.4826 H         1 UNK         0.0806 
    113 H113       26.0336    4.3549   -8.7367 H         1 UNK         0.0806 
    114 H114       25.5057    3.0053   -9.7406 H         1 UNK         0.0806 
    115 H115       27.3287    0.6575  -10.0307 H         1 UNK         0.3000 
    116 H116       28.0117    0.7629  -12.9054 H         1 UNK         0.0850 
    117 H117       27.2243   -1.5943  -12.8914 H         1 UNK         0.0810 
    118 H118       26.0080   -0.5308  -12.2033 H         1 UNK         0.0810 
    119 H119       26.9968   -1.5402  -11.1495 H         1 UNK         0.0810 
    120 H120       29.1290   -0.7667   -9.8616 H         1 UNK         0.3040 
    121 H121       31.3962   -2.0914  -11.0053 H         1 UNK         0.0766 
    122 H122       31.9660   -2.4963   -8.5894 H         1 UNK         0.0812 
    123 H123       30.2877   -2.8799   -8.9436 H         1 UNK         0.0812 
    124 H124       30.6930   -1.3819   -8.1129 H         1 UNK         0.0812 
    125 H125       30.9513    1.1867   -9.9919 H         1 UNK         0.3205 
    126 H126       32.1667    3.0202   -9.9994 H         1 UNK         0.0754 
    127 H127       34.2556    3.2203  -11.2943 H         1 UNK         0.0769 
    128 H128       33.0666    2.3135  -12.2163 H         1 UNK         0.0769 
    129 H129       34.3996    1.4756  -11.4236 H         1 UNK         0.0769 
    130 H130       31.9027    2.1728   -7.6805 H         1 UNK         0.2981 
    131 H131       34.3772    2.7292   -6.2843 H         1 UNK         0.0541 
    132 H132       32.1345    3.2987   -3.3427 H         1 UNK         0.3459 
    133 H133       33.3657    2.0930   -3.6057 H         1 UNK         0.3459 
    134 H134       34.2565    0.7264   -4.7459 H         1 UNK         0.0612 
    135 H135       34.7364    0.3833   -6.3682 H         1 UNK         0.0612 
    136 H136       31.3573    0.0659   -3.9941 H         1 UNK         0.0624 
    137 H137       32.8284   -0.7838   -3.5659 H         1 UNK         0.0624 
@<TRIPOS>BOND
     1    1    2 1    
     2    1   72 1    
     3    1   73 1    
     4    1   74 1    
     5    2    3 2    
     6    2    4 am   BACKBONE|DICT|INTERRES
     7    4    5 1    
     8    4   75 1    
     9    5    6 1    
    10    5   35 1    
    11    5   76 1    
    12    6    7 1    
    13    6   77 1    
    14    6   78 1    
    15    7    8 1    
    16    8    9 1    
    17    8   79 1    
    18    8   80 1    
    19    9   10 ar   
    20    9   14 ar   
    21   10   11 ar   
    22   10   81 1    
    23   11   12 ar   
    24   11   71 1    
    25   12   13 ar   
    26   12   82 1    
    27   13   14 ar   
    28   13   15 1    
    29   14   83 1    
    30   15   16 1    
    31   15   84 1    
    32   15   85 1    
    33   16   17 1    
    34   17   18 1    
    35   17   86 1    
    36   17   87 1    
    37   18   19 1    
    38   18   37 1    
    39   18   88 1    
    40   19   20 am   BACKBONE|DICT|INTERRES
    41   19   89 1    
    42   20   21 2    
    43   20   22 1    
    44   22   23 1    
    45   22   24 1    
    46   22   90 1    
    47   23   91 1    
    48   23   92 1    
    49   23   93 1    
    50   24   25 am   BACKBONE|DICT|INTERRES
    51   24   94 1    
    52   25   26 2    
    53   25   27 1    
    54   27   28 1    
    55   27   29 1    
    56   27   95 1    
    57   28   96 1    
    58   28   97 1    
    59   28   98 1    
    60   29   30 am   BACKBONE|DICT|INTERRES
    61   29   99 1    
    62   30   31 2    
    63   30   32 1    
    64   32   33 1    
    65   32   34 1    
    66   32  100 1    
    67   33  101 1    
    68   33  102 1    
    69   33  103 1    
    70   34   35 am   BACKBONE|DICT|INTERRES
    71   34  104 1    
    72   35   36 2    
    73   37   38 2    
    74   37   39 am   BACKBONE|DICT|INTERRES
    75   39   40 1    
    76   39  105 1    
    77   40   41 1    
    78   40   42 1    
    79   40  106 1    
    80   41  107 1    
    81   41  108 1    
    82   41  109 1    
    83   42   43 2    
    84   42   44 am   BACKBONE|DICT|INTERRES
    85   44   45 1    
    86   44  110 1    
    87   45   46 1    
    88   45   47 1    
    89   45  111 1    
    90   46  112 1    
    91   46  113 1    
    92   46  114 1    
    93   47   48 2    
    94   47   49 am   BACKBONE|DICT|INTERRES
    95   49   50 1    
    96   49  115 1    
    97   50   51 1    
    98   50   52 1    
    99   50  116 1    
   100   51  117 1    
   101   51  118 1    
   102   51  119 1    
   103   52   53 2    
   104   52   54 am   BACKBONE|DICT|INTERRES
   105   54   55 1    
   106   54  120 1    
   107   55   56 1    
   108   55   57 1    
   109   55  121 1    
   110   56  122 1    
   111   56  123 1    
   112   56  124 1    
   113   57   58 2    
   114   57   59 am   BACKBONE|DICT|INTERRES
   115   59   60 1    
   116   59  125 1    
   117   60   61 1    
   118   60   62 1    
   119   60  126 1    
   120   61  127 1    
   121   61  128 1    
   122   61  129 1    
   123   62   63 2    
   124   62   64 am   BACKBONE|DICT|INTERRES
   125   64   65 1    
   126   64  130 1    
   127   65   66 1    
   128   65   69 1    
   129   65  131 1    
   130   66   67 am   BACKBONE|DICT|INTERRES
   131   66   68 2    
   132   67  132 1    
   133   67  133 1    
   134   69   70 1    
   135   69  134 1    
   136   69  135 1    
   137   70   71 1    
   138   71  136 1    
   139   71  137 1    
@<TRIPOS>SUBSTRUCTURE
     1 UNK         1 GROUP             0       ****    0 ROOT    
