@<TRIPOS>MOLECULE
3R137
137   139    1
SMALL
USER_CHARGES


@<TRIPOS>ATOM
      1 CA         27.0610   -4.3740    2.3912 C.3       0 UNK        -0.2020 
      2 C          27.3863   -3.6238    1.1090 C.2       0 UNK         0.4855 
      3 O          27.9949   -2.5538    1.1593 O.2       0 UNK        -0.5197 
      4 N          26.9865   -4.1704   -0.0457 N.am      1 UNK        -0.4892 
      5 CA         27.2049   -3.5852   -1.3721 C.3       1 UNK         0.0835 
      6 C6         27.2461   -4.6625   -2.4905 C.3       12 UNK        -0.0855 
      7 S7         28.3428   -6.0959   -2.1896 S.3       12 UNK        -0.2931 
      8 C8         29.9445   -5.3499   -1.7343 C.3       12 UNK         0.0378 
      9 C9         30.4555   -4.3489   -2.7631 C.ar      12 UNK        -0.0802 
     10 C10        30.6731   -4.7332   -4.0902 C.ar      12 UNK        -0.0944 
     11 C11        31.1357   -3.8105   -5.0351 C.ar      12 UNK        -0.0787 
     12 C12        31.3787   -2.4915   -4.6359 C.ar      12 UNK        -0.0862 
     13 C13        31.1870   -2.0996   -3.3074 C.ar      12 UNK        -0.0733 
     14 C14        30.7296   -3.0348   -2.3768 C.ar      12 UNK        -0.0832 
     15 C15        31.4926   -0.6767   -2.8551 C.3       12 UNK         0.0240 
     16 S16        30.6300    0.6029   -3.8221 S.3       12 UNK        -0.2522 
     17 C17        28.8759    0.1022   -3.7244 C.3       12 UNK        -0.0967 
     18 CA         28.2543   -0.0736   -5.1345 C.3       5 UNK         0.0660 
     19 N          27.0301   -0.8816   -5.1047 N.am      5 UNK        -0.4015 
     20 C          26.4564   -1.4270   -6.1887 C.2       4 UNK         0.4946 
     21 O          26.9424   -1.3784   -7.3163 O.2       4 UNK        -0.5353 
     22 CA         25.0807   -2.0901   -6.0111 C.3       4 UNK         0.0277 
     23 CB         25.2187   -3.5923   -5.7266 C.3       4 UNK        -0.1981 
     24 N          24.2817   -1.4425   -4.9687 N.am      4 UNK        -0.4209 
     25 C          23.7132   -0.2376   -5.1288 C.2       3 UNK         0.4942 
     26 O          23.7623    0.3983   -6.1811 O.2       3 UNK        -0.5208 
     27 CA         23.0142    0.3948   -3.9124 C.3       3 UNK         0.0250 
     28 CB         21.5220    0.0285   -3.9020 C.3       3 UNK        -0.1990 
     29 N          23.6120    0.0389   -2.6231 N.am      3 UNK        -0.4232 
     30 C          24.8838    0.2645   -2.2644 C.2       2 UNK         0.4993 
     31 O          25.7124    0.8035   -2.9999 O.2       2 UNK        -0.5286 
     32 CA         25.3243   -0.2335   -0.8733 C.3       2 UNK         0.0209 
     33 CB         24.1479   -0.5992    0.0602 C.3       2 UNK        -0.1931 
     34 N          26.2653   -1.3610   -0.9355 N.am      2 UNK        -0.4546 
     35 C          26.1450   -2.4943   -1.6444 C.2       1 UNK         0.5154 
     36 O          25.2294   -2.7088   -2.4418 O.2       1 UNK        -0.5181 
     37 C          27.9960    1.2890   -5.8120 C.2       5 UNK         0.5014 
     38 O          28.8322    1.7539   -6.5857 O.2       5 UNK        -0.5248 
     39 N          26.8328    1.8959   -5.5284 N.am      6 UNK        -0.4434 
     40 CA         26.3716    3.1280   -6.1732 C.3       6 UNK         0.0363 
     41 CB         25.1103    3.6472   -5.4652 C.3       6 UNK        -0.1936 
     42 C          26.1250    2.9518   -7.6833 C.2       6 UNK         0.5081 
     43 O          26.4640    3.8482   -8.4563 O.2       6 UNK        -0.5248 
     44 N          25.5551    1.8028   -8.0753 N.am      7 UNK        -0.4718 
     45 CA         25.3455    1.4121   -9.4700 C.3       7 UNK         0.0273 
     46 CB         24.3799    0.2174   -9.5372 C.3       7 UNK        -0.1935 
     47 C          26.6666    1.1014  -10.1929 C.2       7 UNK         0.5018 
     48 O          26.9565    1.7194  -11.2191 O.2       7 UNK        -0.5186 
     49 N          27.4549    0.1645   -9.6481 N.am      8 UNK        -0.4240 
     50 CA         28.7575   -0.2351  -10.1803 C.3       8 UNK         0.0235 
     51 CB         29.0414   -1.6999   -9.7959 C.3       8 UNK        -0.2000 
     52 C          29.8502    0.7216   -9.6811 C.2       8 UNK         0.4941 
     53 O          30.6898    0.3295   -8.8706 O.2       8 UNK        -0.5273 
     54 N          29.8345    1.9622  -10.1861 N.am      9 UNK        -0.4262 
     55 CA         30.7434    3.0496   -9.7986 C.3       9 UNK         0.0264 
     56 CB         30.3481    4.3284  -10.5541 C.3       9 UNK        -0.1955 
     57 C          32.2449    2.7490   -9.9892 C.2       9 UNK         0.5031 
     58 O          33.0676    3.3345   -9.2840 O.2       9 UNK        -0.5390 
     59 N          32.5771    1.8390  -10.9166 N.am      10 UNK        -0.4204 
     60 CA         33.9292    1.3103  -11.1200 C.3       10 UNK         0.0237 
     61 CB         34.0041    0.6335  -12.4985 C.3       10 UNK        -0.1985 
     62 C          34.3703    0.3290  -10.0153 C.2       10 UNK         0.4970 
     63 O          35.5709    0.2078   -9.7692 O.2       10 UNK        -0.4914 
     64 N          33.4076   -0.3527   -9.3821 N.am      11 UNK        -0.4285 
     65 CA         33.6084   -1.2239   -8.2187 C.3       11 UNK         0.1007 
     66 C          33.6351   -0.3938   -6.9087 C.2       11 UNK         0.5703 
     67 N          32.6846    0.5131   -6.7168 N.am      11 UNK        -0.7361 
     68 O          34.5205   -0.5654   -6.0748 O.2       11 UNK        -0.4986 
     69 C69        32.5227   -2.3333   -8.1825 C.3       12 UNK        -0.0947 
     70 S70        32.9691   -3.7771   -7.1618 S.3       12 UNK        -0.2240 
     71 C71        31.3405   -4.2495   -6.4824 C.3       12 UNK         0.0194 
     72 H72        26.4357   -3.7582    3.0372 H         1 UNK         0.0906 
     73 H73        26.5324   -5.3067    2.1954 H         1 UNK         0.0906 
     74 H74        27.9783   -4.6108    2.9296 H         1 UNK         0.0906 
     75 H75        26.4819   -5.0460   -0.0368 H         1 UNK         0.3140 
     76 H76        28.1699   -3.0791   -1.3727 H         1 UNK         0.1085 
     77 H77        26.2485   -5.0693   -2.6677 H         1 UNK         0.0836 
     78 H78        27.5584   -4.2032   -3.4300 H         1 UNK         0.0836 
     79 H79        30.6814   -6.1465   -1.6243 H         1 UNK         0.0731 
     80 H80        29.8501   -4.8885   -0.7501 H         1 UNK         0.0731 
     81 H81        30.4692   -5.7534   -4.3861 H         1 UNK         0.1312 
     82 H82        31.7225   -1.7660   -5.3569 H         1 UNK         0.1406 
     83 H83        30.5884   -2.7380   -1.3460 H         1 UNK         0.1631 
     84 H84        32.5672   -0.5079   -2.9356 H         1 UNK         0.0717 
     85 H85        31.2386   -0.5390   -1.8030 H         1 UNK         0.0717 
     86 H86        28.7989   -0.8296   -3.1641 H         1 UNK         0.0934 
     87 H87        28.3332    0.8433   -3.1350 H         1 UNK         0.0934 
     88 H88        28.9723   -0.6151   -5.7560 H         1 UNK         0.0739 
     89 H89        26.5181   -0.8859   -4.2330 H         1 UNK         0.3093 
     90 H90        24.5466   -1.9879   -6.9582 H         1 UNK         0.0818 
     91 H91        25.7350   -3.7814   -4.7888 H         1 UNK         0.0819 
     92 H92        24.2437   -4.0769   -5.6750 H         1 UNK         0.0819 
     93 H93        25.7860   -4.0873   -6.5160 H         1 UNK         0.0819 
     94 H94        24.2550   -1.8935   -4.0588 H         1 UNK         0.3041 
     95 H95        23.0975    1.4781   -4.0179 H         1 UNK         0.0784 
     96 H96        21.0459    0.3060   -4.8438 H         1 UNK         0.0793 
     97 H97        21.3697   -1.0426   -3.7630 H         1 UNK         0.0793 
     98 H98        20.9896    0.5508   -3.1068 H         1 UNK         0.0793 
     99 H99        23.0144   -0.4402   -1.9652 H         1 UNK         0.3024 
    100 H100       25.8619    0.6000   -0.4178 H         1 UNK         0.1171 
    101 H101       24.5073   -0.8261    1.0642 H         1 UNK         0.0786 
    102 H102       23.4436    0.2284    0.1575 H         1 UNK         0.0786 
    103 H103       23.5969   -1.4726   -0.2913 H         1 UNK         0.0786 
    104 H104       27.0360   -1.3214   -0.2765 H         1 UNK         0.2977 
    105 H105       26.2337    1.4871   -4.8176 H         1 UNK         0.3127 
    106 H106       27.1589    3.8753   -6.0521 H         1 UNK         0.0770 
    107 H107       24.2684    2.9662   -5.5857 H         1 UNK         0.0814 
    108 H108       24.8067    4.6113   -5.8749 H         1 UNK         0.0814 
    109 H109       25.2807    3.7868   -4.3974 H         1 UNK         0.0814 
    110 H110       25.2257    1.1579   -7.3641 H         1 UNK         0.2983 
    111 H111       24.8761    2.2521   -9.9870 H         1 UNK         0.0947 
    112 H112       24.1904   -0.0732  -10.5714 H         1 UNK         0.0806 
    113 H113       23.4174    0.4614   -9.0870 H         1 UNK         0.0806 
    114 H114       24.7763   -0.6565   -9.0201 H         1 UNK         0.0806 
    115 H115       27.1742   -0.2860   -8.7780 H         1 UNK         0.3000 
    116 H116       28.7365   -0.1808  -11.2709 H         1 UNK         0.0850 
    117 H117       29.9788   -2.0427  -10.2351 H         1 UNK         0.0810 
    118 H118       28.2531   -2.3639  -10.1505 H         1 UNK         0.0810 
    119 H119       29.1242   -1.8279   -8.7159 H         1 UNK         0.0810 
    120 H120       29.0746    2.2005  -10.8131 H         1 UNK         0.3040 
    121 H121       30.5888    3.2229   -8.7312 H         1 UNK         0.0766 
    122 H122       30.9845    5.1661  -10.2650 H         1 UNK         0.0812 
    123 H123       29.3191    4.6155  -10.3349 H         1 UNK         0.0812 
    124 H124       30.4412    4.2046  -11.6337 H         1 UNK         0.0812 
    125 H125       31.8360    1.4296  -11.4663 H         1 UNK         0.3205 
    126 H126       34.6297    2.1483  -11.1135 H         1 UNK         0.0754 
    127 H127       35.0087    0.2548  -12.6927 H         1 UNK         0.0769 
    128 H128       33.7645    1.3344  -13.2985 H         1 UNK         0.0769 
    129 H129       33.3177   -0.2110  -12.5733 H         1 UNK         0.0769 
    130 H130       32.4383   -0.1168   -9.5649 H         1 UNK         0.2981 
    131 H131       34.5800   -1.7106   -8.3247 H         1 UNK         0.0541 
    132 H132       31.9340    0.6095   -7.3945 H         1 UNK         0.3459 
    133 H133       32.6740    1.0581   -5.8704 H         1 UNK         0.3459 
    134 H134       31.5674   -1.9252   -7.8498 H         1 UNK         0.0612 
    135 H135       32.3469   -2.7121   -9.1905 H         1 UNK         0.0612 
    136 H136       31.2598   -5.3348   -6.5583 H         1 UNK         0.0624 
    137 H137       30.5354   -3.8469   -7.0983 H         1 UNK         0.0624 
@<TRIPOS>BOND
     1    1    2 1    
     2    1   72 1    
     3    1   73 1    
     4    1   74 1    
     5    2    3 2    
     6    2    4 am   BACKBONE|DICT|INTERRES
     7    4    5 1    
     8    4   75 1    
     9    5    6 1    
    10    5   35 1    
    11    5   76 1    
    12    6    7 1    
    13    6   77 1    
    14    6   78 1    
    15    7    8 1    
    16    8    9 1    
    17    8   79 1    
    18    8   80 1    
    19    9   10 ar   
    20    9   14 ar   
    21   10   11 ar   
    22   10   81 1    
    23   11   12 ar   
    24   11   71 1    
    25   12   13 ar   
    26   12   82 1    
    27   13   14 ar   
    28   13   15 1    
    29   14   83 1    
    30   15   16 1    
    31   15   84 1    
    32   15   85 1    
    33   16   17 1    
    34   17   18 1    
    35   17   86 1    
    36   17   87 1    
    37   18   19 1    
    38   18   37 1    
    39   18   88 1    
    40   19   20 am   BACKBONE|DICT|INTERRES
    41   19   89 1    
    42   20   21 2    
    43   20   22 1    
    44   22   23 1    
    45   22   24 1    
    46   22   90 1    
    47   23   91 1    
    48   23   92 1    
    49   23   93 1    
    50   24   25 am   BACKBONE|DICT|INTERRES
    51   24   94 1    
    52   25   26 2    
    53   25   27 1    
    54   27   28 1    
    55   27   29 1    
    56   27   95 1    
    57   28   96 1    
    58   28   97 1    
    59   28   98 1    
    60   29   30 am   BACKBONE|DICT|INTERRES
    61   29   99 1    
    62   30   31 2    
    63   30   32 1    
    64   32   33 1    
    65   32   34 1    
    66   32  100 1    
    67   33  101 1    
    68   33  102 1    
    69   33  103 1    
    70   34   35 am   BACKBONE|DICT|INTERRES
    71   34  104 1    
    72   35   36 2    
    73   37   38 2    
    74   37   39 am   BACKBONE|DICT|INTERRES
    75   39   40 1    
    76   39  105 1    
    77   40   41 1    
    78   40   42 1    
    79   40  106 1    
    80   41  107 1    
    81   41  108 1    
    82   41  109 1    
    83   42   43 2    
    84   42   44 am   BACKBONE|DICT|INTERRES
    85   44   45 1    
    86   44  110 1    
    87   45   46 1    
    88   45   47 1    
    89   45  111 1    
    90   46  112 1    
    91   46  113 1    
    92   46  114 1    
    93   47   48 2    
    94   47   49 am   BACKBONE|DICT|INTERRES
    95   49   50 1    
    96   49  115 1    
    97   50   51 1    
    98   50   52 1    
    99   50  116 1    
   100   51  117 1    
   101   51  118 1    
   102   51  119 1    
   103   52   53 2    
   104   52   54 am   BACKBONE|DICT|INTERRES
   105   54   55 1    
   106   54  120 1    
   107   55   56 1    
   108   55   57 1    
   109   55  121 1    
   110   56  122 1    
   111   56  123 1    
   112   56  124 1    
   113   57   58 2    
   114   57   59 am   BACKBONE|DICT|INTERRES
   115   59   60 1    
   116   59  125 1    
   117   60   61 1    
   118   60   62 1    
   119   60  126 1    
   120   61  127 1    
   121   61  128 1    
   122   61  129 1    
   123   62   63 2    
   124   62   64 am   BACKBONE|DICT|INTERRES
   125   64   65 1    
   126   64  130 1    
   127   65   66 1    
   128   65   69 1    
   129   65  131 1    
   130   66   67 am   BACKBONE|DICT|INTERRES
   131   66   68 2    
   132   67  132 1    
   133   67  133 1    
   134   69   70 1    
   135   69  134 1    
   136   69  135 1    
   137   70   71 1    
   138   71  136 1    
   139   71  137 1    
@<TRIPOS>SUBSTRUCTURE
     1 UNK         1 GROUP             0       ****    0 ROOT    
