@<TRIPOS>MOLECULE
3R137
137   139    1
SMALL
USER_CHARGES


@<TRIPOS>ATOM
      1 CA         25.7795   -4.7425    2.3686 C.3       0 UNK        -0.2020 
      2 C          26.2455   -3.9005    1.1905 C.2       0 UNK         0.4855 
      3 O          26.1213   -2.6757    1.2235 O.2       0 UNK        -0.5197 
      4 N          26.7692   -4.5445    0.1399 N.am      1 UNK        -0.4892 
      5 CA         27.2974   -3.9188   -1.0814 C.3       1 UNK         0.0835 
      6 C6         28.3707   -4.8194   -1.7501 C.3       12 UNK        -0.0855 
      7 S7         29.8191   -5.0715   -0.6637 S.3       12 UNK        -0.2931 
      8 C8         31.2102   -4.5008   -1.7083 C.3       12 UNK         0.0378 
      9 C9         31.1970   -3.0211   -2.1023 C.ar      12 UNK        -0.0802 
     10 C10        31.9717   -2.6131   -3.1923 C.ar      12 UNK        -0.0944 
     11 C11        31.9978   -1.2742   -3.5944 C.ar      12 UNK        -0.0787 
     12 C12        31.2100   -0.3358   -2.9215 C.ar      12 UNK        -0.0862 
     13 C13        30.4417   -0.7230   -1.8200 C.ar      12 UNK        -0.0733 
     14 C14        30.4648   -2.0567   -1.3995 C.ar      12 UNK        -0.0832 
     15 C15        29.5975    0.2911   -1.0623 C.3       12 UNK         0.0240 
     16 S16        27.8249   -0.0839   -1.2346 S.3       12 UNK        -0.2522 
     17 C17        27.2197    1.2788   -2.2818 C.3       12 UNK        -0.0967 
     18 CA         27.6688    1.2274   -3.7666 C.3       5 UNK         0.0660 
     19 N          27.5543   -0.1039   -4.3645 N.am      5 UNK        -0.4015 
     20 C          28.0565   -0.4574   -5.5566 C.2       4 UNK         0.4946 
     21 O          28.6764    0.3029   -6.3001 O.2       4 UNK        -0.5353 
     22 CA         27.7670   -1.8941   -6.0182 C.3       4 UNK         0.0277 
     23 CB         28.6985   -2.8822   -5.3015 C.3       4 UNK        -0.1981 
     24 N          26.3687   -2.2727   -5.7935 N.am      4 UNK        -0.4209 
     25 C          25.3295   -1.6873   -6.4101 C.2       3 UNK         0.4942 
     26 O          25.4465   -0.8086   -7.2623 O.2       3 UNK        -0.5208 
     27 CA         23.9159   -2.1087   -5.9781 C.3       3 UNK         0.0250 
     28 CB         23.4234   -3.2884   -6.8306 C.3       3 UNK        -0.1990 
     29 N          23.8054   -2.4526   -4.5600 N.am      3 UNK        -0.4232 
     30 C          24.1309   -1.6585   -3.5301 C.2       2 UNK         0.4993 
     31 O          24.5741   -0.5151   -3.6551 O.2       2 UNK        -0.5286 
     32 CA         23.9587   -2.2512   -2.1213 C.3       2 UNK         0.0209 
     33 CB         22.9226   -3.3955   -2.0513 C.3       2 UNK        -0.1931 
     34 N          25.2251   -2.6946   -1.5290 N.am      2 UNK        -0.4546 
     35 C          26.1545   -3.5156   -2.0423 C.2       1 UNK         0.5154 
     36 O          26.1203   -3.9640   -3.1910 O.2       1 UNK        -0.5181 
     37 C          26.8785    2.2692   -4.5796 C.2       5 UNK         0.5014 
     38 O          27.3770    3.3731   -4.8024 O.2       5 UNK        -0.5248 
     39 N          25.6583    1.8936   -4.9936 N.am      6 UNK        -0.4434 
     40 CA         24.7513    2.7230   -5.7865 C.3       6 UNK         0.0363 
     41 CB         23.3701    2.0528   -5.8581 C.3       6 UNK        -0.1936 
     42 C          25.2868    3.0198   -7.1965 C.2       6 UNK         0.5081 
     43 O          25.2115    4.1672   -7.6374 O.2       6 UNK        -0.5248 
     44 N          25.8118    1.9918   -7.8786 N.am      7 UNK        -0.4718 
     45 CA         26.3933    2.1143   -9.2162 C.3       7 UNK         0.0273 
     46 CB         26.5090    0.7260   -9.8642 C.3       7 UNK        -0.1935 
     47 C          27.7587    2.8153   -9.2071 C.2       7 UNK         0.5018 
     48 O          28.0159    3.6285  -10.0961 O.2       7 UNK        -0.5186 
     49 N          28.6134    2.4696   -8.2306 N.am      8 UNK        -0.4240 
     50 CA         29.9938    2.9258   -8.0089 C.3       8 UNK         0.0235 
     51 CB         30.0603    4.4432   -7.7496 C.3       8 UNK        -0.2000 
     52 C          30.9786    2.4934   -9.1099 C.2       8 UNK         0.4941 
     53 O          31.9897    1.8626   -8.8040 O.2       8 UNK        -0.5273 
     54 N          30.6536    2.7932  -10.3748 N.am      9 UNK        -0.4262 
     55 CA         31.4119    2.4166  -11.5730 C.3       9 UNK         0.0264 
     56 CB         30.7775    3.0842  -12.8035 C.3       9 UNK        -0.1955 
     57 C          31.5203    0.8951  -11.7814 C.2       9 UNK         0.5031 
     58 O          32.4945    0.4357  -12.3791 O.2       9 UNK        -0.5390 
     59 N          30.5506    0.1389  -11.2439 N.am      10 UNK        -0.4204 
     60 CA         30.5306   -1.3269  -11.2016 C.3       10 UNK         0.0237 
     61 CB         29.2075   -1.7945  -10.5725 C.3       10 UNK        -0.1985 
     62 C          31.7239   -1.9463  -10.4486 C.2       10 UNK         0.4970 
     63 O          32.0856   -3.0870  -10.7402 O.2       10 UNK        -0.4914 
     64 N          32.3180   -1.1897   -9.5162 N.am      11 UNK        -0.4285 
     65 CA         33.5426   -1.5592   -8.7948 C.3       11 UNK         0.1007 
     66 C          34.8479   -1.3575   -9.6212 C.2       11 UNK         0.5703 
     67 N          34.8120   -0.7751  -10.8159 N.am      11 UNK        -0.7361 
     68 O          35.9214   -1.7532   -9.1723 O.2       11 UNK        -0.4986 
     69 C69        33.6270   -0.8425   -7.4227 C.3       12 UNK        -0.0947 
     70 S70        32.1970   -1.2139   -6.3528 S.3       12 UNK        -0.2240 
     71 C71        32.9140   -0.8433   -4.7280 C.3       12 UNK         0.0194 
     72 H72        25.9531   -5.8059    2.2048 H         1 UNK         0.0906 
     73 H73        26.3112   -4.4478    3.2731 H         1 UNK         0.0906 
     74 H74        24.7132   -4.5945    2.5366 H         1 UNK         0.0906 
     75 H75        26.8326   -5.5527    0.1646 H         1 UNK         0.3140 
     76 H76        27.7806   -2.9843   -0.7978 H         1 UNK         0.1085 
     77 H77        28.7114   -4.3874   -2.6900 H         1 UNK         0.0836 
     78 H78        27.9505   -5.7940   -2.0056 H         1 UNK         0.0836 
     79 H79        31.2313   -5.1172   -2.6087 H         1 UNK         0.0731 
     80 H80        32.1407   -4.7033   -1.1764 H         1 UNK         0.0731 
     81 H81        32.5705   -3.3385   -3.7266 H         1 UNK         0.1312 
     82 H82        31.2148    0.6973   -3.2412 H         1 UNK         0.1406 
     83 H83        29.8984   -2.3351   -0.5234 H         1 UNK         0.1631 
     84 H84        29.8061    1.3081   -1.3978 H         1 UNK         0.0717 
     85 H85        29.8629    0.2573   -0.0046 H         1 UNK         0.0717 
     86 H86        26.1301    1.2517   -2.2101 H         1 UNK         0.0934 
     87 H87        27.5199    2.2261   -1.8294 H         1 UNK         0.0934 
     88 H88        28.7236    1.5064   -3.8110 H         1 UNK         0.0739 
     89 H89        27.0067   -0.7734   -3.8438 H         1 UNK         0.3093 
     90 H90        27.9617   -1.9523   -7.0913 H         1 UNK         0.0818 
     91 H91        28.4665   -3.9163   -5.5564 H         1 UNK         0.0819 
     92 H92        29.7379   -2.7039   -5.5773 H         1 UNK         0.0819 
     93 H93        28.6342   -2.7737   -4.2196 H         1 UNK         0.0819 
     94 H94        26.1844   -2.9675   -5.0768 H         1 UNK         0.3041 
     95 H95        23.2529   -1.2607   -6.1564 H         1 UNK         0.0784 
     96 H96        23.4767   -3.0496   -7.8940 H         1 UNK         0.0793 
     97 H97        24.0243   -4.1839   -6.6670 H         1 UNK         0.0793 
     98 H98        22.3849   -3.5340   -6.6079 H         1 UNK         0.0793 
     99 H99        23.4893   -3.3875   -4.3469 H         1 UNK         0.3024 
    100 H100       23.5913   -1.4342   -1.4978 H         1 UNK         0.1171 
    101 H101       22.7205   -3.6711   -1.0161 H         1 UNK         0.0786 
    102 H102       21.9701   -3.0957   -2.4911 H         1 UNK         0.0786 
    103 H103       23.2613   -4.2957   -2.5656 H         1 UNK         0.0786 
    104 H104       25.3898   -2.3887   -0.5731 H         1 UNK         0.2977 
    105 H105       25.3139    0.9807   -4.7069 H         1 UNK         0.3127 
    106 H106       24.6384    3.6767   -5.2663 H         1 UNK         0.0770 
    107 H107       23.4121    1.1005   -6.3864 H         1 UNK         0.0814 
    108 H108       22.6575    2.6868   -6.3872 H         1 UNK         0.0814 
    109 H109       22.9648    1.8672   -4.8632 H         1 UNK         0.0814 
    110 H110       25.7875    1.0580   -7.4744 H         1 UNK         0.2983 
    111 H111       25.7181    2.7162   -9.8289 H         1 UNK         0.0947 
    112 H112       25.5317    0.2522   -9.9585 H         1 UNK         0.0806 
    113 H113       27.1435    0.0608   -9.2777 H         1 UNK         0.0806 
    114 H114       26.9345    0.7933  -10.8663 H         1 UNK         0.0806 
    115 H115       28.3167    1.7499   -7.5751 H         1 UNK         0.3000 
    116 H116       30.3170    2.4273   -7.0930 H         1 UNK         0.0850 
    117 H117       29.7560    5.0252   -8.6199 H         1 UNK         0.0810 
    118 H118       31.0757    4.7490   -7.4945 H         1 UNK         0.0810 
    119 H119       29.4168    4.7266   -6.9162 H         1 UNK         0.0810 
    120 H120       29.7725    3.2847  -10.5153 H         1 UNK         0.3040 
    121 H121       32.4270    2.8018  -11.4553 H         1 UNK         0.0766 
    122 H122       31.3315    2.8388  -13.7110 H         1 UNK         0.0812 
    123 H123       30.7778    4.1704  -12.7095 H         1 UNK         0.0812 
    124 H124       29.7463    2.7604  -12.9520 H         1 UNK         0.0812 
    125 H125       29.7970    0.6158  -10.7729 H         1 UNK         0.3205 
    126 H126       30.5721   -1.6870  -12.2318 H         1 UNK         0.0754 
    127 H127       29.1488   -2.8840  -10.5519 H         1 UNK         0.0769 
    128 H128       28.3480   -1.4388  -11.1411 H         1 UNK         0.0769 
    129 H129       29.1045   -1.4451   -9.5438 H         1 UNK         0.0769 
    130 H130       31.9790   -0.2519   -9.3390 H         1 UNK         0.2981 
    131 H131       33.4935   -2.6307   -8.5907 H         1 UNK         0.0541 
    132 H132       33.9418   -0.4454  -11.2180 H         1 UNK         0.3459 
    133 H133       35.6711   -0.6639  -11.3301 H         1 UNK         0.3459 
    134 H134       34.5349   -1.1463   -6.8985 H         1 UNK         0.0612 
    135 H135       33.6953    0.2387   -7.5521 H         1 UNK         0.0612 
    136 H136       33.8723   -1.3548   -4.6264 H         1 UNK         0.0624 
    137 H137       33.1258    0.2252   -4.6674 H         1 UNK         0.0624 
@<TRIPOS>BOND
     1    1    2 1    
     2    1   72 1    
     3    1   73 1    
     4    1   74 1    
     5    2    3 2    
     6    2    4 am   BACKBONE|DICT|INTERRES
     7    4    5 1    
     8    4   75 1    
     9    5    6 1    
    10    5   35 1    
    11    5   76 1    
    12    6    7 1    
    13    6   77 1    
    14    6   78 1    
    15    7    8 1    
    16    8    9 1    
    17    8   79 1    
    18    8   80 1    
    19    9   10 ar   
    20    9   14 ar   
    21   10   11 ar   
    22   10   81 1    
    23   11   12 ar   
    24   11   71 1    
    25   12   13 ar   
    26   12   82 1    
    27   13   14 ar   
    28   13   15 1    
    29   14   83 1    
    30   15   16 1    
    31   15   84 1    
    32   15   85 1    
    33   16   17 1    
    34   17   18 1    
    35   17   86 1    
    36   17   87 1    
    37   18   19 1    
    38   18   37 1    
    39   18   88 1    
    40   19   20 am   BACKBONE|DICT|INTERRES
    41   19   89 1    
    42   20   21 2    
    43   20   22 1    
    44   22   23 1    
    45   22   24 1    
    46   22   90 1    
    47   23   91 1    
    48   23   92 1    
    49   23   93 1    
    50   24   25 am   BACKBONE|DICT|INTERRES
    51   24   94 1    
    52   25   26 2    
    53   25   27 1    
    54   27   28 1    
    55   27   29 1    
    56   27   95 1    
    57   28   96 1    
    58   28   97 1    
    59   28   98 1    
    60   29   30 am   BACKBONE|DICT|INTERRES
    61   29   99 1    
    62   30   31 2    
    63   30   32 1    
    64   32   33 1    
    65   32   34 1    
    66   32  100 1    
    67   33  101 1    
    68   33  102 1    
    69   33  103 1    
    70   34   35 am   BACKBONE|DICT|INTERRES
    71   34  104 1    
    72   35   36 2    
    73   37   38 2    
    74   37   39 am   BACKBONE|DICT|INTERRES
    75   39   40 1    
    76   39  105 1    
    77   40   41 1    
    78   40   42 1    
    79   40  106 1    
    80   41  107 1    
    81   41  108 1    
    82   41  109 1    
    83   42   43 2    
    84   42   44 am   BACKBONE|DICT|INTERRES
    85   44   45 1    
    86   44  110 1    
    87   45   46 1    
    88   45   47 1    
    89   45  111 1    
    90   46  112 1    
    91   46  113 1    
    92   46  114 1    
    93   47   48 2    
    94   47   49 am   BACKBONE|DICT|INTERRES
    95   49   50 1    
    96   49  115 1    
    97   50   51 1    
    98   50   52 1    
    99   50  116 1    
   100   51  117 1    
   101   51  118 1    
   102   51  119 1    
   103   52   53 2    
   104   52   54 am   BACKBONE|DICT|INTERRES
   105   54   55 1    
   106   54  120 1    
   107   55   56 1    
   108   55   57 1    
   109   55  121 1    
   110   56  122 1    
   111   56  123 1    
   112   56  124 1    
   113   57   58 2    
   114   57   59 am   BACKBONE|DICT|INTERRES
   115   59   60 1    
   116   59  125 1    
   117   60   61 1    
   118   60   62 1    
   119   60  126 1    
   120   61  127 1    
   121   61  128 1    
   122   61  129 1    
   123   62   63 2    
   124   62   64 am   BACKBONE|DICT|INTERRES
   125   64   65 1    
   126   64  130 1    
   127   65   66 1    
   128   65   69 1    
   129   65  131 1    
   130   66   67 am   BACKBONE|DICT|INTERRES
   131   66   68 2    
   132   67  132 1    
   133   67  133 1    
   134   69   70 1    
   135   69  134 1    
   136   69  135 1    
   137   70   71 1    
   138   71  136 1    
   139   71  137 1    
@<TRIPOS>SUBSTRUCTURE
     1 UNK         1 GROUP             0       ****    0 ROOT    
