@<TRIPOS>MOLECULE
3R137
137   139    1
SMALL
USER_CHARGES


@<TRIPOS>ATOM
      1 CA         31.6493    0.2140   -1.1899 C.3       0 UNK        -0.2020 
      2 C          30.4277   -0.5921   -1.6006 C.2       0 UNK         0.4855 
      3 O          29.7954   -0.2748   -2.6041 O.2       0 UNK        -0.5197 
      4 N          30.0682   -1.6199   -0.8215 N.am      1 UNK        -0.4892 
      5 CA         28.9944   -2.5933   -1.0880 C.3       1 UNK         0.0835 
      6 C6         29.2521   -3.8936   -0.2750 C.3       12 UNK        -0.0855 
      7 S7         28.6465   -5.4099   -1.0900 S.3       12 UNK        -0.2931 
      8 C8         30.1348   -5.9821   -1.9723 C.3       12 UNK         0.0378 
      9 C9         30.3342   -5.2157   -3.2704 C.ar      12 UNK        -0.0802 
     10 C10        31.2926   -4.2001   -3.3662 C.ar      12 UNK        -0.0944 
     11 C11        31.4586   -3.4931   -4.5625 C.ar      12 UNK        -0.0787 
     12 C12        30.6516   -3.8098   -5.6596 C.ar      12 UNK        -0.0862 
     13 C13        29.6846   -4.8140   -5.5742 C.ar      12 UNK        -0.0733 
     14 C14        29.5435   -5.5255   -4.3803 C.ar      12 UNK        -0.0832 
     15 C15        28.7827   -5.1073   -6.7677 C.3       12 UNK         0.0240 
     16 S16        27.0044   -5.0064   -6.3649 S.3       12 UNK        -0.2522 
     17 C17        26.8654   -3.3273   -5.6690 C.3       12 UNK        -0.0967 
     18 CA         26.5946   -2.2548   -6.7608 C.3       5 UNK         0.0660 
     19 N          25.2185   -1.7486   -6.6962 N.am      5 UNK        -0.4015 
     20 C          24.6634   -0.8493   -7.5235 C.2       4 UNK         0.4946 
     21 O          25.2569   -0.3239   -8.4638 O.2       4 UNK        -0.5353 
     22 CA         23.2026   -0.4480   -7.2532 C.3       4 UNK         0.0277 
     23 CB         22.2520   -1.2505   -8.1555 C.3       4 UNK        -0.1981 
     24 N          22.8131   -0.6253   -5.8519 N.am      4 UNK        -0.4209 
     25 C          23.2511    0.1420   -4.8442 C.2       3 UNK         0.4942 
     26 O          23.9380    1.1526   -5.0111 O.2       3 UNK        -0.5208 
     27 CA         22.8699   -0.2941   -3.4126 C.3       3 UNK         0.0250 
     28 CB         22.4284   -1.7726   -3.3044 C.3       3 UNK        -0.1990 
     29 N          23.9345   -0.0206   -2.4384 N.am      3 UNK        -0.4232 
     30 C          25.2094   -0.4376   -2.4885 C.2       2 UNK         0.4993 
     31 O          25.6809   -1.1055   -3.4151 O.2       2 UNK        -0.5286 
     32 CA         26.1169    0.0190   -1.3284 C.3       2 UNK         0.0209 
     33 CB         25.4065    0.0446    0.0454 C.3       2 UNK        -0.1931 
     34 N          27.3677   -0.7474   -1.2768 N.am      2 UNK        -0.4546 
     35 C          27.5580   -2.0237   -0.9137 C.2       1 UNK         0.5154 
     36 O          26.6658   -2.7339   -0.4456 O.2       1 UNK        -0.5181 
     37 C          27.6358   -1.1216   -6.6957 C.2       5 UNK         0.5014 
     38 O          28.5450   -1.0849   -7.5281 O.2       5 UNK        -0.5248 
     39 N          27.4410   -0.1991   -5.7413 N.am      6 UNK        -0.4434 
     40 CA         28.2570    1.0016   -5.5466 C.3       6 UNK         0.0363 
     41 CB         27.7173    1.7980   -4.3500 C.3       6 UNK        -0.1936 
     42 C          28.3312    1.9118   -6.7818 C.2       6 UNK         0.5081 
     43 O          29.3877    2.4885   -7.0389 O.2       6 UNK        -0.5248 
     44 N          27.2177    2.0228   -7.5176 N.am      7 UNK        -0.4718 
     45 CA         27.1244    2.7931   -8.7556 C.3       7 UNK         0.0273 
     46 CB         25.6616    3.1960   -9.0041 C.3       7 UNK        -0.1935 
     47 C          27.6908    2.0135   -9.9505 C.2       7 UNK         0.5018 
     48 O          28.4610    2.5802  -10.7251 O.2       7 UNK        -0.5186 
     49 N          27.3092    0.7336  -10.0732 N.am      8 UNK        -0.4240 
     50 CA         27.6842   -0.1604  -11.1718 C.3       8 UNK         0.0235 
     51 CB         26.9087   -1.4825  -11.0497 C.3       8 UNK        -0.2000 
     52 C          29.1940   -0.4265  -11.2605 C.2       8 UNK         0.4941 
     53 O          29.7543   -0.3542  -12.3550 O.2       8 UNK        -0.5273 
     54 N          29.8257   -0.7143  -10.1149 N.am      9 UNK        -0.4262 
     55 CA         31.2709   -0.9395  -10.0172 C.3       9 UNK         0.0264 
     56 CB         31.5379   -1.9307   -8.8772 C.3       9 UNK        -0.1955 
     57 C          32.0665    0.3581   -9.7904 C.2       9 UNK         0.5031 
     58 O          33.2954    0.3194   -9.8614 O.2       9 UNK        -0.5390 
     59 N          31.3677    1.4642   -9.4909 N.am      10 UNK        -0.4204 
     60 CA         31.8899    2.7911   -9.1361 C.3       10 UNK         0.0237 
     61 CB         32.6704    3.4151  -10.3129 C.3       10 UNK        -0.1985 
     62 C          32.6842    2.8209   -7.8114 C.2       10 UNK         0.4970 
     63 O          33.4380    3.7685   -7.5815 O.2       10 UNK        -0.4914 
     64 N          32.4982    1.8038   -6.9593 N.am      11 UNK        -0.4285 
     65 CA         33.0994    1.6978   -5.6226 C.3       11 UNK         0.1007 
     66 C          32.3672    2.5175   -4.5200 C.2       11 UNK         0.5703 
     67 N          31.1948    3.0869   -4.7760 N.am      11 UNK        -0.7361 
     68 O          32.8916    2.6650   -3.4187 O.2       11 UNK        -0.4986 
     69 C69        33.3402    0.2188   -5.2158 C.3       12 UNK        -0.0947 
     70 S70        31.8311   -0.8029   -5.1853 S.3       12 UNK        -0.2240 
     71 C71        32.5247   -2.4092   -4.6821 C.3       12 UNK         0.0194 
     72 H72        32.0713   -0.1307   -0.2463 H         1 UNK         0.0906 
     73 H73        32.4190    0.1357   -1.9574 H         1 UNK         0.0906 
     74 H74        31.3864    1.2662   -1.0832 H         1 UNK         0.0906 
     75 H75        30.5937   -1.7872    0.0248 H         1 UNK         0.3140 
     76 H76        29.0684   -2.8426   -2.1491 H         1 UNK         0.1085 
     77 H77        30.3205   -4.0268   -0.0981 H         1 UNK         0.0836 
     78 H78        28.8099   -3.8275    0.7210 H         1 UNK         0.0836 
     79 H79        31.0125   -5.9033   -1.3290 H         1 UNK         0.0731 
     80 H80        30.0213   -7.0439   -2.1966 H         1 UNK         0.0731 
     81 H81        31.9067   -3.9600   -2.5091 H         1 UNK         0.1312 
     82 H82        30.7685   -3.2600   -6.5800 H         1 UNK         0.1406 
     83 H83        28.7941   -6.3022   -4.3051 H         1 UNK         0.1631 
     84 H84        29.0044   -6.1072   -7.1428 H         1 UNK         0.0717 
     85 H85        28.9894   -4.4169   -7.5874 H         1 UNK         0.0717 
     86 H86        27.7536   -3.1081   -5.0730 H         1 UNK         0.0934 
     87 H87        26.0603   -3.3490   -4.9326 H         1 UNK         0.0934 
     88 H88        26.7045   -2.7055   -7.7493 H         1 UNK         0.0739 
     89 H89        24.6577   -2.0950   -5.9329 H         1 UNK         0.3093 
     90 H90        23.1024    0.6099   -7.5067 H         1 UNK         0.0818 
     91 H91        21.2185   -0.9265   -8.0315 H         1 UNK         0.0819 
     92 H92        22.5078   -1.1146   -9.2075 H         1 UNK         0.0819 
     93 H93        22.2979   -2.3199   -7.9453 H         1 UNK         0.0819 
     94 H94        22.2292   -1.4204   -5.6352 H         1 UNK         0.3041 
     95 H95        22.0224    0.3293   -3.1239 H         1 UNK         0.0784 
     96 H96        21.5233   -1.9675   -3.8807 H         1 UNK         0.0793 
     97 H97        23.2042   -2.4566   -3.6517 H         1 UNK         0.0793 
     98 H98        22.2013   -2.0363   -2.2713 H         1 UNK         0.0793 
     99 H99        23.6646    0.5663   -1.6620 H         1 UNK         0.3024 
    100 H100       26.4071    1.0446   -1.5591 H         1 UNK         0.1171 
    101 H101       26.1115    0.2525    0.8505 H         1 UNK         0.0786 
    102 H102       24.9163   -0.9035    0.2695 H         1 UNK         0.0786 
    103 H103       24.6445    0.8233    0.0864 H         1 UNK         0.0786 
    104 H104       28.1680   -0.3104   -1.7295 H         1 UNK         0.2977 
    105 H105       26.6909   -0.3542   -5.0743 H         1 UNK         0.3127 
    106 H106       29.2719    0.6758   -5.3139 H         1 UNK         0.0770 
    107 H107       26.6685    2.0681   -4.4812 H         1 UNK         0.0814 
    108 H108       28.2801    2.7207   -4.2044 H         1 UNK         0.0814 
    109 H109       27.8068    1.2235   -3.4316 H         1 UNK         0.0814 
    110 H110       26.4082    1.4783   -7.2529 H         1 UNK         0.2983 
    111 H111       27.7114    3.7082   -8.6457 H         1 UNK         0.0947 
    112 H112       25.5710    3.7881   -9.9158 H         1 UNK         0.0806 
    113 H113       25.2740    3.8020   -8.1850 H         1 UNK         0.0806 
    114 H114       25.0111    2.3276   -9.1139 H         1 UNK         0.0806 
    115 H115       26.6460    0.3584   -9.3955 H         1 UNK         0.3000 
    116 H116       27.3819    0.3246  -12.1023 H         1 UNK         0.0850 
    117 H117       27.1591   -2.1613  -11.8662 H         1 UNK         0.0810 
    118 H118       25.8322   -1.3147  -11.0861 H         1 UNK         0.0810 
    119 H119       27.1339   -1.9966  -10.1147 H         1 UNK         0.0810 
    120 H120       29.2899   -0.7822   -9.2499 H         1 UNK         0.3040 
    121 H121       31.6349   -1.3882  -10.9440 H         1 UNK         0.0766 
    122 H122       32.6011   -2.1584   -8.7892 H         1 UNK         0.0812 
    123 H123       31.2114   -1.5184   -7.9240 H         1 UNK         0.0812 
    124 H124       31.0135   -2.8727   -9.0376 H         1 UNK         0.0812 
    125 H125       30.3600    1.3838   -9.4707 H         1 UNK         0.3205 
    126 H126       31.0120    3.4160   -8.9671 H         1 UNK         0.0754 
    127 H127       32.9124    4.4596  -10.1127 H         1 UNK         0.0769 
    128 H128       32.0850    3.3913  -11.2322 H         1 UNK         0.0769 
    129 H129       33.6105    2.8951  -10.4987 H         1 UNK         0.0769 
    130 H130       31.8280    1.0884   -7.1967 H         1 UNK         0.2981 
    131 H131       34.0908    2.1504   -5.6848 H         1 UNK         0.0541 
    132 H132       30.7341    2.9499   -5.6692 H         1 UNK         0.3459 
    133 H133       30.7478    3.6278   -4.0546 H         1 UNK         0.3459 
    134 H134       33.8223    0.1634   -4.2381 H         1 UNK         0.0612 
    135 H135       34.0389   -0.2384   -5.9181 H         1 UNK         0.0612 
    136 H136       33.2686   -2.7231   -5.4155 H         1 UNK         0.0624 
    137 H137       33.0507   -2.2812   -3.7348 H         1 UNK         0.0624 
@<TRIPOS>BOND
     1    1    2 1    
     2    1   72 1    
     3    1   73 1    
     4    1   74 1    
     5    2    3 2    
     6    2    4 am   BACKBONE|DICT|INTERRES
     7    4    5 1    
     8    4   75 1    
     9    5    6 1    
    10    5   35 1    
    11    5   76 1    
    12    6    7 1    
    13    6   77 1    
    14    6   78 1    
    15    7    8 1    
    16    8    9 1    
    17    8   79 1    
    18    8   80 1    
    19    9   10 ar   
    20    9   14 ar   
    21   10   11 ar   
    22   10   81 1    
    23   11   12 ar   
    24   11   71 1    
    25   12   13 ar   
    26   12   82 1    
    27   13   14 ar   
    28   13   15 1    
    29   14   83 1    
    30   15   16 1    
    31   15   84 1    
    32   15   85 1    
    33   16   17 1    
    34   17   18 1    
    35   17   86 1    
    36   17   87 1    
    37   18   19 1    
    38   18   37 1    
    39   18   88 1    
    40   19   20 am   BACKBONE|DICT|INTERRES
    41   19   89 1    
    42   20   21 2    
    43   20   22 1    
    44   22   23 1    
    45   22   24 1    
    46   22   90 1    
    47   23   91 1    
    48   23   92 1    
    49   23   93 1    
    50   24   25 am   BACKBONE|DICT|INTERRES
    51   24   94 1    
    52   25   26 2    
    53   25   27 1    
    54   27   28 1    
    55   27   29 1    
    56   27   95 1    
    57   28   96 1    
    58   28   97 1    
    59   28   98 1    
    60   29   30 am   BACKBONE|DICT|INTERRES
    61   29   99 1    
    62   30   31 2    
    63   30   32 1    
    64   32   33 1    
    65   32   34 1    
    66   32  100 1    
    67   33  101 1    
    68   33  102 1    
    69   33  103 1    
    70   34   35 am   BACKBONE|DICT|INTERRES
    71   34  104 1    
    72   35   36 2    
    73   37   38 2    
    74   37   39 am   BACKBONE|DICT|INTERRES
    75   39   40 1    
    76   39  105 1    
    77   40   41 1    
    78   40   42 1    
    79   40  106 1    
    80   41  107 1    
    81   41  108 1    
    82   41  109 1    
    83   42   43 2    
    84   42   44 am   BACKBONE|DICT|INTERRES
    85   44   45 1    
    86   44  110 1    
    87   45   46 1    
    88   45   47 1    
    89   45  111 1    
    90   46  112 1    
    91   46  113 1    
    92   46  114 1    
    93   47   48 2    
    94   47   49 am   BACKBONE|DICT|INTERRES
    95   49   50 1    
    96   49  115 1    
    97   50   51 1    
    98   50   52 1    
    99   50  116 1    
   100   51  117 1    
   101   51  118 1    
   102   51  119 1    
   103   52   53 2    
   104   52   54 am   BACKBONE|DICT|INTERRES
   105   54   55 1    
   106   54  120 1    
   107   55   56 1    
   108   55   57 1    
   109   55  121 1    
   110   56  122 1    
   111   56  123 1    
   112   56  124 1    
   113   57   58 2    
   114   57   59 am   BACKBONE|DICT|INTERRES
   115   59   60 1    
   116   59  125 1    
   117   60   61 1    
   118   60   62 1    
   119   60  126 1    
   120   61  127 1    
   121   61  128 1    
   122   61  129 1    
   123   62   63 2    
   124   62   64 am   BACKBONE|DICT|INTERRES
   125   64   65 1    
   126   64  130 1    
   127   65   66 1    
   128   65   69 1    
   129   65  131 1    
   130   66   67 am   BACKBONE|DICT|INTERRES
   131   66   68 2    
   132   67  132 1    
   133   67  133 1    
   134   69   70 1    
   135   69  134 1    
   136   69  135 1    
   137   70   71 1    
   138   71  136 1    
   139   71  137 1    
@<TRIPOS>SUBSTRUCTURE
     1 UNK         1 GROUP             0       ****    0 ROOT    
