@<TRIPOS>MOLECULE
3R137
137   139    1
SMALL
USER_CHARGES


@<TRIPOS>ATOM
      1 CA         23.7890   -5.9614   -2.2721 C.3       0 UNK        -0.2020 
      2 C          24.6299   -4.6960   -2.2211 C.2       0 UNK         0.4855 
      3 O          24.5776   -3.8962   -3.1553 O.2       0 UNK        -0.5197 
      4 N          25.3855   -4.5024   -1.1298 N.am      1 UNK        -0.4892 
      5 CA         26.3249   -3.3949   -0.8834 C.3       1 UNK         0.0835 
      6 C6         27.6266   -3.5044   -1.7118 C.3       12 UNK        -0.0855 
      7 S7         28.5940   -5.0173   -1.3941 S.3       12 UNK        -0.2931 
      8 C8         29.5241   -5.1971   -2.9636 C.3       12 UNK         0.0378 
      9 C9         30.2832   -3.9518   -3.4363 C.ar      12 UNK        -0.0802 
     10 C10        30.5641   -3.8071   -4.7996 C.ar      12 UNK        -0.0944 
     11 C11        31.2240   -2.6712   -5.2810 C.ar      12 UNK        -0.0787 
     12 C12        31.5798   -1.6563   -4.3867 C.ar      12 UNK        -0.0862 
     13 C13        31.3033   -1.7809   -3.0233 C.ar      12 UNK        -0.0733 
     14 C14        30.6995   -2.9485   -2.5521 C.ar      12 UNK        -0.0832 
     15 C15        31.6300   -0.6509   -2.0541 C.3       12 UNK         0.0240 
     16 S16        30.7681    0.9114   -2.4516 S.3       12 UNK        -0.2522 
     17 C17        29.0243    0.4044   -2.6866 C.3       12 UNK        -0.0967 
     18 CA         28.6285    0.3683   -4.1877 C.3       5 UNK         0.0660 
     19 N          27.6077   -0.6477   -4.4810 N.am      5 UNK        -0.4015 
     20 C          27.3989   -1.1226   -5.7195 C.2       4 UNK         0.4946 
     21 O          28.0427   -0.7552   -6.7011 O.2       4 UNK        -0.5353 
     22 CA         26.2505   -2.1162   -5.9432 C.3       4 UNK         0.0277 
     23 CB         26.7448   -3.5696   -5.8756 C.3       4 UNK        -0.1981 
     24 N          25.0880   -1.9272   -5.0715 N.am      4 UNK        -0.4209 
     25 C          24.3032   -0.8398   -5.0858 C.2       3 UNK         0.4942 
     26 O          24.5919    0.2000   -5.6770 O.2       3 UNK        -0.5208 
     27 CA         22.9757   -0.9250   -4.3245 C.3       3 UNK         0.0250 
     28 CB         22.0746   -2.0376   -4.8890 C.3       3 UNK        -0.1990 
     29 N          23.2231   -1.1607   -2.9073 N.am      3 UNK        -0.4232 
     30 C          23.2539   -0.2010   -1.9728 C.2       2 UNK         0.4993 
     31 O          22.9783    0.9797   -2.1898 O.2       2 UNK        -0.5286 
     32 CA         23.6652   -0.6173   -0.5476 C.3       2 UNK         0.0209 
     33 CB         22.4225   -0.7824    0.3429 C.3       2 UNK        -0.1931 
     34 N          24.4672   -1.8442   -0.4829 N.am      2 UNK        -0.4546 
     35 C          25.6739   -2.0020   -1.0450 C.2       1 UNK         0.5154 
     36 O          26.2377   -1.1227   -1.7032 O.2       1 UNK        -0.5181 
     37 C          28.2672    1.7661   -4.7455 C.2       5 UNK         0.5014 
     38 O          29.1617    2.5989   -4.8923 O.2       5 UNK        -0.5248 
     39 N          26.9873    2.0015   -5.0711 N.am      6 UNK        -0.4434 
     40 CA         26.5242    3.2014   -5.7661 C.3       6 UNK         0.0363 
     41 CB         25.1802    3.6559   -5.1716 C.3       6 UNK        -0.1936 
     42 C          26.3964    2.9346   -7.2731 C.2       6 UNK         0.5081 
     43 O          26.9206    3.7088   -8.0734 O.2       6 UNK        -0.5248 
     44 N          25.6981    1.8496   -7.6355 N.am      7 UNK        -0.4718 
     45 CA         25.3454    1.4999   -9.0138 C.3       7 UNK         0.0273 
     46 CB         24.2743    0.3972   -8.9963 C.3       7 UNK        -0.1935 
     47 C          26.5365    1.0735   -9.8862 C.2       7 UNK         0.5018 
     48 O          26.5114    1.3290  -11.0908 O.2       7 UNK        -0.5186 
     49 N          27.5453    0.4363   -9.2802 N.am      8 UNK        -0.4240 
     50 CA         28.7461   -0.0614   -9.9494 C.3       8 UNK         0.0235 
     51 CB         28.7027   -1.6016   -9.9920 C.3       8 UNK        -0.2000 
     52 C          30.0078    0.4723   -9.2557 C.2       8 UNK         0.4941 
     53 O          31.0107   -0.2365   -9.1973 O.2       8 UNK        -0.5273 
     54 N          29.9594    1.7237   -8.7706 N.am      9 UNK        -0.4262 
     55 CA         31.0156    2.4094   -8.0068 C.3       9 UNK         0.0264 
     56 CB         30.5685    3.8557   -7.7372 C.3       9 UNK        -0.1955 
     57 C          32.4213    2.4106   -8.6453 C.2       9 UNK         0.5031 
     58 O          33.4125    2.5493   -7.9275 O.2       9 UNK        -0.5390 
     59 N          32.4861    2.2423   -9.9720 N.am      10 UNK        -0.4204 
     60 CA         33.7083    2.1040  -10.7634 C.3       10 UNK         0.0237 
     61 CB         33.3651    2.3757  -12.2390 C.3       10 UNK        -0.1985 
     62 C          34.4271    0.7449  -10.6108 C.2       10 UNK         0.4970 
     63 O          35.4855    0.5833  -11.2204 O.2       10 UNK        -0.4914 
     64 N          33.8685   -0.2074   -9.8442 N.am      11 UNK        -0.4285 
     65 CA         34.4362   -1.5508   -9.6192 C.3       11 UNK         0.1007 
     66 C          35.8692   -1.6035   -9.0027 C.2       11 UNK         0.5703 
     67 N          36.3461   -0.5560   -8.3395 N.am      11 UNK        -0.7361 
     68 O          36.5589   -2.6116   -9.1389 O.2       11 UNK        -0.4986 
     69 C69        33.4459   -2.4872   -8.8678 C.3       12 UNK        -0.0947 
     70 S70        33.2662   -2.1247   -7.0842 S.3       12 UNK        -0.2240 
     71 C71        31.5167   -2.5277   -6.7698 C.3       12 UNK         0.0194 
     72 H72        24.0686   -6.5592   -3.1393 H         1 UNK         0.0906 
     73 H73        23.9177   -6.5750   -1.3807 H         1 UNK         0.0906 
     74 H74        22.7334   -5.7059   -2.3605 H         1 UNK         0.0906 
     75 H75        25.3660   -5.2040   -0.4020 H         1 UNK         0.3140 
     76 H76        26.6050   -3.4602    0.1695 H         1 UNK         0.1085 
     77 H77        28.2724   -2.6617   -1.4702 H         1 UNK         0.0836 
     78 H78        27.4074   -3.4265   -2.7744 H         1 UNK         0.0836 
     79 H79        28.8167   -5.5061   -3.7349 H         1 UNK         0.0731 
     80 H80        30.2358   -6.0162   -2.8529 H         1 UNK         0.0731 
     81 H81        30.2612   -4.5815   -5.4913 H         1 UNK         0.1312 
     82 H82        32.0568   -0.7582   -4.7550 H         1 UNK         0.1406 
     83 H83        30.5196   -3.0540   -1.4918 H         1 UNK         0.1631 
     84 H84        32.7060   -0.4725   -2.0651 H         1 UNK         0.0717 
     85 H85        31.3772   -0.9322   -1.0307 H         1 UNK         0.0717 
     86 H86        28.8953   -0.5776   -2.2340 H         1 UNK         0.0934 
     87 H87        28.3715    1.0708   -2.1194 H         1 UNK         0.0934 
     88 H88        29.5133    0.0629   -4.7486 H         1 UNK         0.0739 
     89 H89        27.0233   -0.9525   -3.7102 H         1 UNK         0.3093 
     90 H90        25.9010   -1.9493   -6.9641 H         1 UNK         0.0818 
     91 H91        27.5982   -3.7219   -6.5381 H         1 UNK         0.0819 
     92 H92        27.0590   -3.8520   -4.8741 H         1 UNK         0.0819 
     93 H93        25.9658   -4.2658   -6.1865 H         1 UNK         0.0819 
     94 H94        24.8236   -2.7177   -4.4837 H         1 UNK         0.3041 
     95 H95        22.4529    0.0238   -4.4645 H         1 UNK         0.0784 
     96 H96        21.9048   -1.8966   -5.9573 H         1 UNK         0.0793 
     97 H97        22.5073   -3.0296   -4.7549 H         1 UNK         0.0793 
     98 H98        21.0985   -2.0345   -4.4038 H         1 UNK         0.0793 
     99 H99        23.5221   -2.0947   -2.6525 H         1 UNK         0.3024 
    100 H100       24.2737    0.1956   -0.1446 H         1 UNK         0.1171 
    101 H101       22.6985   -0.9809    1.3787 H         1 UNK         0.0786 
    102 H102       21.8166    0.1251    0.3403 H         1 UNK         0.0786 
    103 H103       21.7863   -1.5996    0.0004 H         1 UNK         0.0786 
    104 H104       24.0653   -2.6272    0.0131 H         1 UNK         0.2977 
    105 H105       26.3092    1.2559   -4.9666 H         1 UNK         0.3127 
    106 H106       27.2372    4.0177   -5.6309 H         1 UNK         0.0770 
    107 H107       24.4105    2.8883   -5.2590 H         1 UNK         0.0814 
    108 H108       24.8112    4.5471   -5.6809 H         1 UNK         0.0814 
    109 H109       25.2814    3.9051   -4.1153 H         1 UNK         0.0814 
    110 H110       25.2934    1.2621   -6.9069 H         1 UNK         0.2983 
    111 H111       24.9091    2.3878   -9.4768 H         1 UNK         0.0947 
    112 H112       24.6447   -0.5170   -8.5319 H         1 UNK         0.0806 
    113 H113       23.9563    0.1441  -10.0086 H         1 UNK         0.0806 
    114 H114       23.3871    0.7143   -8.4477 H         1 UNK         0.0806 
    115 H115       27.5029    0.2523   -8.2802 H         1 UNK         0.3000 
    116 H116       28.7909    0.3028  -10.9777 H         1 UNK         0.0850 
    117 H117       29.5543   -2.0038  -10.5422 H         1 UNK         0.0810 
    118 H118       27.7999   -1.9594  -10.4867 H         1 UNK         0.0810 
    119 H119       28.7297   -2.0317   -8.9901 H         1 UNK         0.0810 
    120 H120       29.0901    2.2294   -8.8749 H         1 UNK         0.3040 
    121 H121       31.0994    1.8906   -7.0495 H         1 UNK         0.0766 
    122 H122       29.6183    3.8877   -7.2047 H         1 UNK         0.0812 
    123 H123       30.4519    4.4214   -8.6623 H         1 UNK         0.0812 
    124 H124       31.2982    4.3820   -7.1203 H         1 UNK         0.0812 
    125 H125       31.6147    2.1186  -10.4660 H         1 UNK         0.3205 
    126 H126       34.4117    2.8710  -10.4326 H         1 UNK         0.0754 
    127 H127       34.2592    2.3478  -12.8636 H         1 UNK         0.0769 
    128 H128       32.9169    3.3612  -12.3681 H         1 UNK         0.0769 
    129 H129       32.6690    1.6344  -12.6340 H         1 UNK         0.0769 
    130 H130       32.9620   -0.0378   -9.4184 H         1 UNK         0.2981 
    131 H131       34.5492   -1.9741  -10.6190 H         1 UNK         0.0541 
    132 H132       37.2735   -0.5964   -7.9482 H         1 UNK         0.3459 
    133 H133       35.7775    0.2669   -8.2169 H         1 UNK         0.3459 
    134 H134       32.4659   -2.4503   -9.3453 H         1 UNK         0.0612 
    135 H135       33.7752   -3.5234   -8.9605 H         1 UNK         0.0612 
    136 H136       30.8765   -1.7445   -7.1732 H         1 UNK         0.0624 
    137 H137       31.2644   -3.4463   -7.3015 H         1 UNK         0.0624 
@<TRIPOS>BOND
     1    1    2 1    
     2    1   72 1    
     3    1   73 1    
     4    1   74 1    
     5    2    3 2    
     6    2    4 am   BACKBONE|DICT|INTERRES
     7    4    5 1    
     8    4   75 1    
     9    5    6 1    
    10    5   35 1    
    11    5   76 1    
    12    6    7 1    
    13    6   77 1    
    14    6   78 1    
    15    7    8 1    
    16    8    9 1    
    17    8   79 1    
    18    8   80 1    
    19    9   10 ar   
    20    9   14 ar   
    21   10   11 ar   
    22   10   81 1    
    23   11   12 ar   
    24   11   71 1    
    25   12   13 ar   
    26   12   82 1    
    27   13   14 ar   
    28   13   15 1    
    29   14   83 1    
    30   15   16 1    
    31   15   84 1    
    32   15   85 1    
    33   16   17 1    
    34   17   18 1    
    35   17   86 1    
    36   17   87 1    
    37   18   19 1    
    38   18   37 1    
    39   18   88 1    
    40   19   20 am   BACKBONE|DICT|INTERRES
    41   19   89 1    
    42   20   21 2    
    43   20   22 1    
    44   22   23 1    
    45   22   24 1    
    46   22   90 1    
    47   23   91 1    
    48   23   92 1    
    49   23   93 1    
    50   24   25 am   BACKBONE|DICT|INTERRES
    51   24   94 1    
    52   25   26 2    
    53   25   27 1    
    54   27   28 1    
    55   27   29 1    
    56   27   95 1    
    57   28   96 1    
    58   28   97 1    
    59   28   98 1    
    60   29   30 am   BACKBONE|DICT|INTERRES
    61   29   99 1    
    62   30   31 2    
    63   30   32 1    
    64   32   33 1    
    65   32   34 1    
    66   32  100 1    
    67   33  101 1    
    68   33  102 1    
    69   33  103 1    
    70   34   35 am   BACKBONE|DICT|INTERRES
    71   34  104 1    
    72   35   36 2    
    73   37   38 2    
    74   37   39 am   BACKBONE|DICT|INTERRES
    75   39   40 1    
    76   39  105 1    
    77   40   41 1    
    78   40   42 1    
    79   40  106 1    
    80   41  107 1    
    81   41  108 1    
    82   41  109 1    
    83   42   43 2    
    84   42   44 am   BACKBONE|DICT|INTERRES
    85   44   45 1    
    86   44  110 1    
    87   45   46 1    
    88   45   47 1    
    89   45  111 1    
    90   46  112 1    
    91   46  113 1    
    92   46  114 1    
    93   47   48 2    
    94   47   49 am   BACKBONE|DICT|INTERRES
    95   49   50 1    
    96   49  115 1    
    97   50   51 1    
    98   50   52 1    
    99   50  116 1    
   100   51  117 1    
   101   51  118 1    
   102   51  119 1    
   103   52   53 2    
   104   52   54 am   BACKBONE|DICT|INTERRES
   105   54   55 1    
   106   54  120 1    
   107   55   56 1    
   108   55   57 1    
   109   55  121 1    
   110   56  122 1    
   111   56  123 1    
   112   56  124 1    
   113   57   58 2    
   114   57   59 am   BACKBONE|DICT|INTERRES
   115   59   60 1    
   116   59  125 1    
   117   60   61 1    
   118   60   62 1    
   119   60  126 1    
   120   61  127 1    
   121   61  128 1    
   122   61  129 1    
   123   62   63 2    
   124   62   64 am   BACKBONE|DICT|INTERRES
   125   64   65 1    
   126   64  130 1    
   127   65   66 1    
   128   65   69 1    
   129   65  131 1    
   130   66   67 am   BACKBONE|DICT|INTERRES
   131   66   68 2    
   132   67  132 1    
   133   67  133 1    
   134   69   70 1    
   135   69  134 1    
   136   69  135 1    
   137   70   71 1    
   138   71  136 1    
   139   71  137 1    
@<TRIPOS>SUBSTRUCTURE
     1 UNK         1 GROUP             0       ****    0 ROOT    
