@<TRIPOS>MOLECULE
3R137
137   139    1
SMALL
USER_CHARGES


@<TRIPOS>ATOM
      1 CA         30.3991   -4.4785    2.2284 C.3       0 UNK        -0.2020 
      2 C          29.7651   -3.8767    0.9831 C.2       0 UNK         0.4855 
      3 O          29.8896   -2.6733    0.7530 O.2       0 UNK        -0.5197 
      4 N          29.0962   -4.7056    0.1725 N.am      1 UNK        -0.4892 
      5 CA         28.3855   -4.2907   -1.0419 C.3       1 UNK         0.0835 
      6 C6         28.0907   -5.4925   -1.9778 C.3       12 UNK        -0.0855 
      7 S7         29.5162   -6.5569   -2.4144 S.3       12 UNK        -0.2931 
      8 C8         30.9099   -5.3997   -2.6715 C.3       12 UNK         0.0378 
      9 C9         30.6552   -4.3228   -3.7239 C.ar      12 UNK        -0.0802 
     10 C10        31.1580   -3.0327   -3.5200 C.ar      12 UNK        -0.0944 
     11 C11        30.9465   -2.0266   -4.4673 C.ar      12 UNK        -0.0787 
     12 C12        30.2162   -2.3133   -5.6216 C.ar      12 UNK        -0.0862 
     13 C13        29.7098   -3.5966   -5.8405 C.ar      12 UNK        -0.0733 
     14 C14        29.9463   -4.6011   -4.8989 C.ar      12 UNK        -0.0832 
     15 C15        28.8924   -3.8882   -7.0888 C.3       12 UNK         0.0240 
     16 S16        27.1180   -4.1040   -6.7261 S.3       12 UNK        -0.2522 
     17 C17        26.6758   -2.5968   -5.7912 C.3       12 UNK        -0.0967 
     18 CA         26.0355   -1.4920   -6.6714 C.3       5 UNK         0.0660 
     19 N          24.9360   -0.8250   -5.9719 N.am      5 UNK        -0.4015 
     20 C          23.9484   -0.1409   -6.5679 C.2       4 UNK         0.4946 
     21 O          23.8593   -0.0001   -7.7881 O.2       4 UNK        -0.5353 
     22 CA         22.8946    0.5166   -5.6560 C.3       4 UNK         0.0277 
     23 CB         21.6410   -0.3684   -5.5646 C.3       4 UNK        -0.1981 
     24 N          23.3844    0.8006   -4.3031 N.am      4 UNK        -0.4209 
     25 C          24.3416    1.6936   -4.0130 C.2       3 UNK         0.4942 
     26 O          24.8806    2.4111   -4.8542 O.2       3 UNK        -0.5208 
     27 CA         24.8210    1.7533   -2.5521 C.3       3 UNK         0.0250 
     28 CB         23.9764    2.7557   -1.7490 C.3       3 UNK        -0.1990 
     29 N          24.8213    0.4518   -1.8705 N.am      3 UNK        -0.4232 
     30 C          25.5277   -0.6177   -2.2630 C.2       2 UNK         0.4993 
     31 O          26.2216   -0.6496   -3.2827 O.2       2 UNK        -0.5286 
     32 CA         25.3966   -1.8820   -1.4116 C.3       2 UNK         0.0209 
     33 CB         24.1714   -2.7067   -1.8505 C.3       2 UNK        -0.1931 
     34 N          26.6144   -2.6734   -1.5702 N.am      2 UNK        -0.4546 
     35 C          27.0708   -3.5644   -0.6839 C.2       1 UNK         0.5154 
     36 O          26.4769   -3.8464    0.3616 O.2       1 UNK        -0.5181 
     37 C          27.0820   -0.4883   -7.2046 C.2       5 UNK         0.5014 
     38 O          27.8480   -0.8462   -8.0986 O.2       5 UNK        -0.5248 
     39 N          27.0733    0.7652   -6.7176 N.am      6 UNK        -0.4434 
     40 CA         27.9351    1.8531   -7.1997 C.3       6 UNK         0.0363 
     41 CB         27.7380    3.0995   -6.3239 C.3       6 UNK        -0.1936 
     42 C          27.7289    2.2026   -8.6875 C.2       6 UNK         0.5081 
     43 O          28.6399    2.7434   -9.3127 O.2       6 UNK        -0.5248 
     44 N          26.5514    1.8710   -9.2366 N.am      7 UNK        -0.4718 
     45 CA         26.2478    1.9672  -10.6651 C.3       7 UNK         0.0273 
     46 CB         24.7222    1.9433  -10.8528 C.3       7 UNK        -0.1935 
     47 C          26.9091    0.8527  -11.5000 C.2       7 UNK         0.5018 
     48 O          27.1032    1.0478  -12.7006 O.2       7 UNK        -0.5186 
     49 N          27.2279   -0.2885  -10.8710 N.am      8 UNK        -0.4240 
     50 CA         27.8814   -1.4350  -11.5038 C.3       8 UNK         0.0235 
     51 CB         27.3307   -2.7423  -10.9079 C.3       8 UNK        -0.2000 
     52 C          29.4072   -1.3628  -11.3489 C.2       8 UNK         0.4941 
     53 O          30.1188   -1.6284  -12.3189 O.2       8 UNK        -0.5273 
     54 N          29.8843   -0.9948  -10.1528 N.am      9 UNK        -0.4262 
     55 CA         31.2981   -0.8052   -9.8423 C.3       9 UNK         0.0264 
     56 CB         31.8777   -2.0876   -9.2181 C.3       9 UNK        -0.1955 
     57 C          31.4198    0.3946   -8.9008 C.2       9 UNK         0.5031 
     58 O          31.0580    0.2868   -7.7294 O.2       9 UNK        -0.5390 
     59 N          31.9009    1.5257   -9.4277 N.am      10 UNK        -0.4204 
     60 CA         32.0724    2.7753   -8.6878 C.3       10 UNK         0.0237 
     61 CB         32.1675    3.9426   -9.6875 C.3       10 UNK        -0.1985 
     62 C          33.2968    2.7049   -7.7592 C.2       10 UNK         0.4970 
     63 O          34.3959    3.0853   -8.1675 O.2       10 UNK        -0.4914 
     64 N          33.0854    2.2034   -6.5365 N.am      11 UNK        -0.4285 
     65 CA         34.1076    2.0940   -5.4810 C.3       11 UNK         0.1007 
     66 C          34.6342    3.4539   -4.9325 C.2       11 UNK         0.5703 
     67 N          33.9440    4.5697   -5.1399 N.am      11 UNK        -0.7361 
     68 O          35.6927    3.4946   -4.3097 O.2       11 UNK        -0.4986 
     69 C69        33.6402    1.1900   -4.3096 C.3       12 UNK        -0.0947 
     70 S70        33.2179   -0.5063   -4.8294 S.3       12 UNK        -0.2240 
     71 C71        31.5008   -0.6293   -4.2430 C.3       12 UNK         0.0194 
     72 H72        31.4751   -4.3053    2.2229 H         1 UNK         0.0906 
     73 H73        29.9834   -4.0140    3.1224 H         1 UNK         0.0906 
     74 H74        30.2292   -5.5532    2.2943 H         1 UNK         0.0906 
     75 H75        29.0072   -5.6822    0.4147 H         1 UNK         0.3140 
     76 H76        29.0151   -3.5753   -1.5740 H         1 UNK         0.1085 
     77 H77        27.6543   -5.1353   -2.9131 H         1 UNK         0.0836 
     78 H78        27.3355   -6.1421   -1.5299 H         1 UNK         0.0836 
     79 H79        31.1729   -4.9473   -1.7146 H         1 UNK         0.0731 
     80 H80        31.7820   -5.9776   -2.9799 H         1 UNK         0.0731 
     81 H81        31.7210   -2.8084   -2.6239 H         1 UNK         0.1312 
     82 H82        30.0335   -1.5339   -6.3483 H         1 UNK         0.1406 
     83 H83        29.5563   -5.5943   -5.0753 H         1 UNK         0.1631 
     84 H84        29.2669   -4.7982   -7.5594 H         1 UNK         0.0717 
     85 H85        29.0188   -3.0983   -7.8284 H         1 UNK         0.0717 
     86 H86        25.9594   -2.9336   -5.0400 H         1 UNK         0.0934 
     87 H87        27.5166   -2.2176   -5.2102 H         1 UNK         0.0934 
     88 H88        25.5964   -1.9694   -7.5505 H         1 UNK         0.0739 
     89 H89        24.9957   -0.8287   -4.9603 H         1 UNK         0.3093 
     90 H90        22.6126    1.4656   -6.1173 H         1 UNK         0.0818 
     91 H91        20.8515    0.1184   -4.9914 H         1 UNK         0.0819 
     92 H92        21.2367   -0.5751   -6.5567 H         1 UNK         0.0819 
     93 H93        21.8560   -1.3288   -5.0944 H         1 UNK         0.0819 
     94 H94        22.9895    0.2580   -3.5487 H         1 UNK         0.3041 
     95 H95        25.8524    2.1124   -2.5673 H         1 UNK         0.0784 
     96 H96        23.9782    3.7371   -2.2258 H         1 UNK         0.0793 
     97 H97        22.9368    2.4358   -1.6662 H         1 UNK         0.0793 
     98 H98        24.3692    2.8884   -0.7407 H         1 UNK         0.0793 
     99 H99        24.2631    0.3857   -1.0307 H         1 UNK         0.3024 
    100 H100       25.2906   -1.5880   -0.3642 H         1 UNK         0.1171 
    101 H101       23.2508   -2.1304   -1.7508 H         1 UNK         0.0786 
    102 H102       24.0559   -3.6024   -1.2397 H         1 UNK         0.0786 
    103 H103       24.2501   -3.0221   -2.8920 H         1 UNK         0.0786 
    104 H104       27.1523   -2.4422   -2.3971 H         1 UNK         0.2977 
    105 H105       26.4037    1.0073   -5.9984 H         1 UNK         0.3127 
    106 H106       28.9665    1.5235   -7.0807 H         1 UNK         0.0770 
    107 H107       26.7343    3.5124   -6.4319 H         1 UNK         0.0814 
    108 H108       28.4429    3.8843   -6.6023 H         1 UNK         0.0814 
    109 H109       27.9001    2.8771   -5.2688 H         1 UNK         0.0814 
    110 H110       25.8481    1.4425   -8.6493 H         1 UNK         0.2983 
    111 H111       26.6244    2.9230  -11.0372 H         1 UNK         0.0947 
    112 H112       24.4561    2.0397  -11.9067 H         1 UNK         0.0806 
    113 H113       24.2440    2.7671  -10.3222 H         1 UNK         0.0806 
    114 H114       24.2854    1.0116  -10.4893 H         1 UNK         0.0806 
    115 H115       27.1105   -0.3422   -9.8651 H         1 UNK         0.3000 
    116 H116       27.6550   -1.4390  -12.5726 H         1 UNK         0.0850 
    117 H117       27.7903   -3.6100  -11.3835 H         1 UNK         0.0810 
    118 H118       26.2540   -2.8224  -11.0595 H         1 UNK         0.0810 
    119 H119       27.5226   -2.8200   -9.8376 H         1 UNK         0.0810 
    120 H120       29.2344   -0.8057   -9.3907 H         1 UNK         0.3040 
    121 H121       31.8570   -0.5863  -10.7549 H         1 UNK         0.0766 
    122 H122       32.9282   -1.9528   -8.9579 H         1 UNK         0.0812 
    123 H123       31.8174   -2.9274   -9.9103 H         1 UNK         0.0812 
    124 H124       31.3517   -2.3682   -8.3062 H         1 UNK         0.0812 
    125 H125       32.1877    1.5323  -10.3957 H         1 UNK         0.3205 
    126 H126       31.1858    2.9431   -8.0718 H         1 UNK         0.0754 
    127 H127       32.3099    4.8906   -9.1670 H         1 UNK         0.0769 
    128 H128       31.2529    4.0316  -10.2747 H         1 UNK         0.0769 
    129 H129       33.0014    3.8214  -10.3802 H         1 UNK         0.0769 
    130 H130       32.1765    1.8140   -6.3254 H         1 UNK         0.2981 
    131 H131       34.9722    1.6084   -5.9375 H         1 UNK         0.0541 
    132 H132       33.0730    4.5473   -5.6441 H         1 UNK         0.3459 
    133 H133       34.2988    5.4426   -4.7823 H         1 UNK         0.3459 
    134 H134       32.7869    1.6443   -3.8028 H         1 UNK         0.0612 
    135 H135       34.4263    1.1036   -3.5570 H         1 UNK         0.0612 
    136 H136       31.4590   -0.3812   -3.1812 H         1 UNK         0.0624 
    137 H137       30.8882    0.1100   -4.7626 H         1 UNK         0.0624 
@<TRIPOS>BOND
     1    1    2 1    
     2    1   72 1    
     3    1   73 1    
     4    1   74 1    
     5    2    3 2    
     6    2    4 am   BACKBONE|DICT|INTERRES
     7    4    5 1    
     8    4   75 1    
     9    5    6 1    
    10    5   35 1    
    11    5   76 1    
    12    6    7 1    
    13    6   77 1    
    14    6   78 1    
    15    7    8 1    
    16    8    9 1    
    17    8   79 1    
    18    8   80 1    
    19    9   10 ar   
    20    9   14 ar   
    21   10   11 ar   
    22   10   81 1    
    23   11   12 ar   
    24   11   71 1    
    25   12   13 ar   
    26   12   82 1    
    27   13   14 ar   
    28   13   15 1    
    29   14   83 1    
    30   15   16 1    
    31   15   84 1    
    32   15   85 1    
    33   16   17 1    
    34   17   18 1    
    35   17   86 1    
    36   17   87 1    
    37   18   19 1    
    38   18   37 1    
    39   18   88 1    
    40   19   20 am   BACKBONE|DICT|INTERRES
    41   19   89 1    
    42   20   21 2    
    43   20   22 1    
    44   22   23 1    
    45   22   24 1    
    46   22   90 1    
    47   23   91 1    
    48   23   92 1    
    49   23   93 1    
    50   24   25 am   BACKBONE|DICT|INTERRES
    51   24   94 1    
    52   25   26 2    
    53   25   27 1    
    54   27   28 1    
    55   27   29 1    
    56   27   95 1    
    57   28   96 1    
    58   28   97 1    
    59   28   98 1    
    60   29   30 am   BACKBONE|DICT|INTERRES
    61   29   99 1    
    62   30   31 2    
    63   30   32 1    
    64   32   33 1    
    65   32   34 1    
    66   32  100 1    
    67   33  101 1    
    68   33  102 1    
    69   33  103 1    
    70   34   35 am   BACKBONE|DICT|INTERRES
    71   34  104 1    
    72   35   36 2    
    73   37   38 2    
    74   37   39 am   BACKBONE|DICT|INTERRES
    75   39   40 1    
    76   39  105 1    
    77   40   41 1    
    78   40   42 1    
    79   40  106 1    
    80   41  107 1    
    81   41  108 1    
    82   41  109 1    
    83   42   43 2    
    84   42   44 am   BACKBONE|DICT|INTERRES
    85   44   45 1    
    86   44  110 1    
    87   45   46 1    
    88   45   47 1    
    89   45  111 1    
    90   46  112 1    
    91   46  113 1    
    92   46  114 1    
    93   47   48 2    
    94   47   49 am   BACKBONE|DICT|INTERRES
    95   49   50 1    
    96   49  115 1    
    97   50   51 1    
    98   50   52 1    
    99   50  116 1    
   100   51  117 1    
   101   51  118 1    
   102   51  119 1    
   103   52   53 2    
   104   52   54 am   BACKBONE|DICT|INTERRES
   105   54   55 1    
   106   54  120 1    
   107   55   56 1    
   108   55   57 1    
   109   55  121 1    
   110   56  122 1    
   111   56  123 1    
   112   56  124 1    
   113   57   58 2    
   114   57   59 am   BACKBONE|DICT|INTERRES
   115   59   60 1    
   116   59  125 1    
   117   60   61 1    
   118   60   62 1    
   119   60  126 1    
   120   61  127 1    
   121   61  128 1    
   122   61  129 1    
   123   62   63 2    
   124   62   64 am   BACKBONE|DICT|INTERRES
   125   64   65 1    
   126   64  130 1    
   127   65   66 1    
   128   65   69 1    
   129   65  131 1    
   130   66   67 am   BACKBONE|DICT|INTERRES
   131   66   68 2    
   132   67  132 1    
   133   67  133 1    
   134   69   70 1    
   135   69  134 1    
   136   69  135 1    
   137   70   71 1    
   138   71  136 1    
   139   71  137 1    
@<TRIPOS>SUBSTRUCTURE
     1 UNK         1 GROUP             0       ****    0 ROOT    
