@<TRIPOS>MOLECULE
3R137
137   139    1
SMALL
USER_CHARGES


@<TRIPOS>ATOM
      1 CA         29.9493   -5.6147   -7.1039 C.3       0 UNK        -0.2020 
      2 C          28.7229   -6.1712   -6.3971 C.2       0 UNK         0.4855 
      3 O          28.0348   -7.0301   -6.9482 O.2       0 UNK        -0.5197 
      4 N          28.4470   -5.6929   -5.1772 N.am      1 UNK        -0.4892 
      5 CA         27.3026   -6.0998   -4.3505 C.3       1 UNK         0.0835 
      6 C6         27.4843   -5.6704   -2.8701 C.3       12 UNK        -0.0855 
      7 S7         27.8459   -3.8860   -2.6633 S.3       12 UNK        -0.2931 
      8 C8         29.4331   -3.9503   -1.7783 C.3       12 UNK         0.0378 
      9 C9         30.1329   -2.6005   -1.7952 C.ar      12 UNK        -0.0802 
     10 C10        31.2043   -2.3790   -2.6638 C.ar      12 UNK        -0.0944 
     11 C11        31.8729   -1.1514   -2.6719 C.ar      12 UNK        -0.0787 
     12 C12        31.4584   -0.1343   -1.8072 C.ar      12 UNK        -0.0862 
     13 C13        30.3908   -0.3470   -0.9284 C.ar      12 UNK        -0.0733 
     14 C14        29.7308   -1.5807   -0.9280 C.ar      12 UNK        -0.0832 
     15 C15        29.9688    0.7382    0.0498 C.3       12 UNK         0.0240 
     16 S16        28.4435    1.5740   -0.4794 S.3       12 UNK        -0.2522 
     17 C17        29.0391    2.6485   -1.8304 C.3       12 UNK        -0.0967 
     18 CA         28.5549    2.2007   -3.2368 C.3       5 UNK         0.0660 
     19 N          27.0954    2.0447   -3.2785 N.am      5 UNK        -0.4015 
     20 C          26.4066    1.3143   -4.1626 C.2       4 UNK         0.4946 
     21 O          26.9245    0.6783   -5.0843 O.2       4 UNK        -0.5353 
     22 CA         24.8788    1.3058   -4.0068 C.3       4 UNK         0.0277 
     23 CB         24.1924    1.7999   -5.2914 C.3       4 UNK        -0.1981 
     24 N          24.4243   -0.0476   -3.7059 N.am      4 UNK        -0.4209 
     25 C          24.5973   -0.6723   -2.5354 C.2       3 UNK         0.4942 
     26 O          25.0121   -0.1113   -1.5209 O.2       3 UNK        -0.5208 
     27 CA         24.2865   -2.1783   -2.4808 C.3       3 UNK         0.0250 
     28 CB         22.8229   -2.4395   -2.0742 C.3       3 UNK        -0.1990 
     29 N          24.6624   -2.9139   -3.6981 N.am      3 UNK        -0.4232 
     30 C          24.1100   -2.8806   -4.9214 C.2       2 UNK         0.4993 
     31 O          23.1419   -2.1762   -5.2088 O.2       2 UNK        -0.5286 
     32 CA         24.7737   -3.7204   -6.0319 C.3       2 UNK         0.0209 
     33 CB         25.1612   -2.8287   -7.2225 C.3       2 UNK        -0.1931 
     34 N          25.9654   -4.4434   -5.5771 N.am      2 UNK        -0.4546 
     35 C          25.9496   -5.5990   -4.8983 C.2       1 UNK         0.5154 
     36 O          24.9227   -6.2367   -4.6619 O.2       1 UNK        -0.5181 
     37 C          29.0202    3.1787   -4.3411 C.2       5 UNK         0.5014 
     38 O          29.5736    4.2376   -4.0372 O.2       5 UNK        -0.5248 
     39 N          28.7291    2.8403   -5.6001 N.am      6 UNK        -0.4434 
     40 CA         28.9046    3.6894   -6.7731 C.3       6 UNK         0.0363 
     41 CB         27.6803    4.6192   -6.9159 C.3       6 UNK        -0.1936 
     42 C          29.1350    2.8154   -8.0128 C.2       6 UNK         0.5081 
     43 O          29.4486    1.6285   -7.8839 O.2       6 UNK        -0.5248 
     44 N          28.9837    3.4157   -9.2016 N.am      7 UNK        -0.4718 
     45 CA         29.2198    2.8126  -10.5198 C.3       7 UNK         0.0273 
     46 CB         28.9110    3.8486  -11.6119 C.3       7 UNK        -0.1935 
     47 C          28.4524    1.5062  -10.7901 C.2       7 UNK         0.5018 
     48 O          28.9585    0.6653  -11.5316 O.2       7 UNK        -0.5186 
     49 N          27.2910    1.3259  -10.1445 N.am      8 UNK        -0.4240 
     50 CA         26.5018    0.0893  -10.1600 C.3       8 UNK         0.0235 
     51 CB         25.1955    0.3111   -9.3809 C.3       8 UNK        -0.2000 
     52 C          27.2595   -1.1298   -9.5989 C.2       8 UNK         0.4941 
     53 O          27.0899   -2.2333  -10.1170 O.2       8 UNK        -0.5273 
     54 N          28.0968   -0.9032   -8.5768 N.am      9 UNK        -0.4262 
     55 CA         28.9919   -1.8999   -7.9835 C.3       9 UNK         0.0264 
     56 CB         29.0218   -1.6834   -6.4583 C.3       9 UNK        -0.1955 
     57 C          30.4177   -1.8204   -8.5666 C.2       9 UNK         0.5031 
     58 O          31.2757   -2.5921   -8.1390 O.2       9 UNK        -0.5390 
     59 N          30.6529   -0.8845   -9.5017 N.am      10 UNK        -0.4204 
     60 CA         31.9497   -0.4502  -10.0387 C.3       10 UNK         0.0237 
     61 CB         32.6523   -1.5888  -10.8092 C.3       10 UNK        -0.1985 
     62 C          32.8474    0.2062   -8.9674 C.2       10 UNK         0.4970 
     63 O          34.0725    0.0950   -9.0426 O.2       10 UNK        -0.4914 
     64 N          32.2183    0.8836   -7.9989 N.am      11 UNK        -0.4285 
     65 CA         32.8503    1.5089   -6.8259 C.3       11 UNK         0.1007 
     66 C          32.8545    3.0634   -6.8871 C.2       11 UNK         0.5703 
     67 N          32.4922    3.6868   -8.0028 N.am      11 UNK        -0.7361 
     68 O          33.2191    3.7211   -5.9159 O.2       11 UNK        -0.4986 
     69 C69        32.2162    0.9693   -5.5143 C.3       12 UNK        -0.0947 
     70 S70        32.5377   -0.8167   -5.3286 S.3       12 UNK        -0.2240 
     71 C71        33.0635   -0.9522   -3.5957 C.3       12 UNK         0.0194 
     72 H72        30.6805   -6.4062   -7.2651 H         1 UNK         0.0906 
     73 H73        29.6724   -5.2065   -8.0754 H         1 UNK         0.0906 
     74 H74        30.4300   -4.8224   -6.5301 H         1 UNK         0.0906 
     75 H75        29.0440   -4.9898   -4.7643 H         1 UNK         0.3140 
     76 H76        27.2534   -7.1911   -4.3736 H         1 UNK         0.1085 
     77 H77        28.2898   -6.2582   -2.4276 H         1 UNK         0.0836 
     78 H78        26.5988   -5.9176   -2.2805 H         1 UNK         0.0836 
     79 H79        30.0752   -4.7078   -2.2308 H         1 UNK         0.0731 
     80 H80        29.2605   -4.2674   -0.7486 H         1 UNK         0.0731 
     81 H81        31.5269   -3.1643   -3.3340 H         1 UNK         0.1312 
     82 H82        31.9778    0.8142   -1.8057 H         1 UNK         0.1406 
     83 H83        28.9036   -1.7476   -0.2510 H         1 UNK         0.1631 
     84 H84        30.7637    1.4722    0.1908 H         1 UNK         0.0717 
     85 H85        29.7972    0.2896    1.0294 H         1 UNK         0.0717 
     86 H86        28.6925    3.6605   -1.6110 H         1 UNK         0.0934 
     87 H87        30.1291    2.6967   -1.8047 H         1 UNK         0.0934 
     88 H88        29.0092    1.2303   -3.4519 H         1 UNK         0.0739 
     89 H89        26.5893    2.5200   -2.5457 H         1 UNK         0.3093 
     90 H90        24.5897    1.9659   -3.1861 H         1 UNK         0.0818 
     91 H91        24.5285    2.8042   -5.5527 H         1 UNK         0.0819 
     92 H92        24.4100    1.1512   -6.1407 H         1 UNK         0.0819 
     93 H93        23.1097    1.8400   -5.1714 H         1 UNK         0.0819 
     94 H94        24.0525   -0.5961   -4.4748 H         1 UNK         0.3041 
     95 H95        24.9191   -2.5910   -1.6930 H         1 UNK         0.0784 
     96 H96        22.6054   -1.9896   -1.1046 H         1 UNK         0.0793 
     97 H97        22.1160   -2.0179   -2.7892 H         1 UNK         0.0793 
     98 H98        22.6194   -3.5070   -1.9894 H         1 UNK         0.0793 
     99 H99        25.4978   -3.4754   -3.5990 H         1 UNK         0.3024 
    100 H100       24.0309   -4.4449   -6.3738 H         1 UNK         0.1171 
    101 H101       25.8300   -2.0215   -6.9225 H         1 UNK         0.0786 
    102 H102       25.6531   -3.4036   -8.0072 H         1 UNK         0.0786 
    103 H103       24.2786   -2.3680   -7.6677 H         1 UNK         0.0786 
    104 H104       26.8577   -3.9925   -5.7178 H         1 UNK         0.2977 
    105 H105       28.2869    1.9385   -5.7670 H         1 UNK         0.3127 
    106 H106       29.8035    4.2959   -6.6444 H         1 UNK         0.0770 
    107 H107       27.8155    5.3488   -7.7146 H         1 UNK         0.0814 
    108 H108       27.5080    5.1889   -6.0025 H         1 UNK         0.0814 
    109 H109       26.7707    4.0561   -7.1291 H         1 UNK         0.0814 
    110 H110       28.7230    4.3915   -9.2054 H         1 UNK         0.2983 
    111 H111       30.2829    2.5704  -10.5744 H         1 UNK         0.0947 
    112 H112       29.1002    3.4385  -12.6052 H         1 UNK         0.0806 
    113 H113       29.5363    4.7356  -11.5076 H         1 UNK         0.0806 
    114 H114       27.8680    4.1663  -11.5841 H         1 UNK         0.0806 
    115 H115       26.9566    2.0750   -9.5563 H         1 UNK         0.3000 
    116 H116       26.2509   -0.1287  -11.2004 H         1 UNK         0.0850 
    117 H117       25.3853    0.5288   -8.3291 H         1 UNK         0.0810 
    118 H118       24.5637   -0.5771   -9.4214 H         1 UNK         0.0810 
    119 H119       24.6170    1.1357   -9.7976 H         1 UNK         0.0810 
    120 H120       28.2119    0.0459   -8.2348 H         1 UNK         0.3040 
    121 H121       28.6128   -2.9048   -8.1786 H         1 UNK         0.0766 
    122 H122       28.0300   -1.7750   -6.0174 H         1 UNK         0.0812 
    123 H123       29.4049   -0.6948   -6.2015 H         1 UNK         0.0812 
    124 H124       29.6635   -2.4141   -5.9648 H         1 UNK         0.0812 
    125 H125       29.8571   -0.3533   -9.8322 H         1 UNK         0.3205 
    126 H126       31.7251    0.3363  -10.7602 H         1 UNK         0.0754 
    127 H127       33.5303   -1.2178  -11.3392 H         1 UNK         0.0769 
    128 H128       31.9895   -2.0316  -11.5527 H         1 UNK         0.0769 
    129 H129       32.9890   -2.3835  -10.1430 H         1 UNK         0.0769 
    130 H130       31.2048    0.9564   -8.0222 H         1 UNK         0.2981 
    131 H131       33.9079    1.2410   -6.8046 H         1 UNK         0.0541 
    132 H132       32.2384    3.1604   -8.8217 H         1 UNK         0.3459 
    133 H133       32.5245    4.6933   -8.0356 H         1 UNK         0.3459 
    134 H134       31.1377    1.1322   -5.5095 H         1 UNK         0.0612 
    135 H135       32.6108    1.4945   -4.6434 H         1 UNK         0.0612 
    136 H136       33.7290   -1.8117   -3.5039 H         1 UNK         0.0624 
    137 H137       33.6540   -0.0818   -3.3064 H         1 UNK         0.0624 
@<TRIPOS>BOND
     1    1    2 1    
     2    1   72 1    
     3    1   73 1    
     4    1   74 1    
     5    2    3 2    
     6    2    4 am   BACKBONE|DICT|INTERRES
     7    4    5 1    
     8    4   75 1    
     9    5    6 1    
    10    5   35 1    
    11    5   76 1    
    12    6    7 1    
    13    6   77 1    
    14    6   78 1    
    15    7    8 1    
    16    8    9 1    
    17    8   79 1    
    18    8   80 1    
    19    9   10 ar   
    20    9   14 ar   
    21   10   11 ar   
    22   10   81 1    
    23   11   12 ar   
    24   11   71 1    
    25   12   13 ar   
    26   12   82 1    
    27   13   14 ar   
    28   13   15 1    
    29   14   83 1    
    30   15   16 1    
    31   15   84 1    
    32   15   85 1    
    33   16   17 1    
    34   17   18 1    
    35   17   86 1    
    36   17   87 1    
    37   18   19 1    
    38   18   37 1    
    39   18   88 1    
    40   19   20 am   BACKBONE|DICT|INTERRES
    41   19   89 1    
    42   20   21 2    
    43   20   22 1    
    44   22   23 1    
    45   22   24 1    
    46   22   90 1    
    47   23   91 1    
    48   23   92 1    
    49   23   93 1    
    50   24   25 am   BACKBONE|DICT|INTERRES
    51   24   94 1    
    52   25   26 2    
    53   25   27 1    
    54   27   28 1    
    55   27   29 1    
    56   27   95 1    
    57   28   96 1    
    58   28   97 1    
    59   28   98 1    
    60   29   30 am   BACKBONE|DICT|INTERRES
    61   29   99 1    
    62   30   31 2    
    63   30   32 1    
    64   32   33 1    
    65   32   34 1    
    66   32  100 1    
    67   33  101 1    
    68   33  102 1    
    69   33  103 1    
    70   34   35 am   BACKBONE|DICT|INTERRES
    71   34  104 1    
    72   35   36 2    
    73   37   38 2    
    74   37   39 am   BACKBONE|DICT|INTERRES
    75   39   40 1    
    76   39  105 1    
    77   40   41 1    
    78   40   42 1    
    79   40  106 1    
    80   41  107 1    
    81   41  108 1    
    82   41  109 1    
    83   42   43 2    
    84   42   44 am   BACKBONE|DICT|INTERRES
    85   44   45 1    
    86   44  110 1    
    87   45   46 1    
    88   45   47 1    
    89   45  111 1    
    90   46  112 1    
    91   46  113 1    
    92   46  114 1    
    93   47   48 2    
    94   47   49 am   BACKBONE|DICT|INTERRES
    95   49   50 1    
    96   49  115 1    
    97   50   51 1    
    98   50   52 1    
    99   50  116 1    
   100   51  117 1    
   101   51  118 1    
   102   51  119 1    
   103   52   53 2    
   104   52   54 am   BACKBONE|DICT|INTERRES
   105   54   55 1    
   106   54  120 1    
   107   55   56 1    
   108   55   57 1    
   109   55  121 1    
   110   56  122 1    
   111   56  123 1    
   112   56  124 1    
   113   57   58 2    
   114   57   59 am   BACKBONE|DICT|INTERRES
   115   59   60 1    
   116   59  125 1    
   117   60   61 1    
   118   60   62 1    
   119   60  126 1    
   120   61  127 1    
   121   61  128 1    
   122   61  129 1    
   123   62   63 2    
   124   62   64 am   BACKBONE|DICT|INTERRES
   125   64   65 1    
   126   64  130 1    
   127   65   66 1    
   128   65   69 1    
   129   65  131 1    
   130   66   67 am   BACKBONE|DICT|INTERRES
   131   66   68 2    
   132   67  132 1    
   133   67  133 1    
   134   69   70 1    
   135   69  134 1    
   136   69  135 1    
   137   70   71 1    
   138   71  136 1    
   139   71  137 1    
@<TRIPOS>SUBSTRUCTURE
     1 UNK         1 GROUP             0       ****    0 ROOT    
