@<TRIPOS>MOLECULE
3R137
137   139    1
SMALL
USER_CHARGES


@<TRIPOS>ATOM
      1 CA         30.9619   -5.5031   -6.3263 C.3       0 UNK        -0.2020 
      2 C          29.7322   -5.8183   -5.4879 C.2       0 UNK         0.4855 
      3 O          29.0981   -6.8526   -5.6958 O.2       0 UNK        -0.5197 
      4 N          29.3931   -4.9366   -4.5373 N.am      1 UNK        -0.4892 
      5 CA         28.2790   -5.1045   -3.5903 C.3       1 UNK         0.0835 
      6 C6         28.4068   -4.1472   -2.3807 C.3       12 UNK        -0.0855 
      7 S7         29.9274   -4.4833   -1.4324 S.3       12 UNK        -0.2931 
      8 C8         29.8673   -3.1702   -0.1708 C.3       12 UNK         0.0378 
      9 C9         30.0910   -1.7736   -0.7413 C.ar      12 UNK        -0.0802 
     10 C10        31.1840   -1.5075   -1.5731 C.ar      12 UNK        -0.0944 
     11 C11        31.4114   -0.2185   -2.0631 C.ar      12 UNK        -0.0787 
     12 C12        30.5453    0.8171   -1.7014 C.ar      12 UNK        -0.0862 
     13 C13        29.4483    0.5658   -0.8691 C.ar      12 UNK        -0.0733 
     14 C14        29.2248   -0.7313   -0.3973 C.ar      12 UNK        -0.0832 
     15 C15        28.5179    1.6959   -0.4485 C.3       12 UNK         0.0240 
     16 S16        26.9718    1.7125   -1.4128 S.3       12 UNK        -0.2522 
     17 C17        27.5789    2.1853   -3.0654 C.3       12 UNK        -0.0967 
     18 CA         27.3756    1.0415   -4.1038 C.3       5 UNK         0.0660 
     19 N          25.9633    0.7302   -4.3525 N.am      5 UNK        -0.4015 
     20 C          25.0527    1.5507   -4.8975 C.2       4 UNK         0.4946 
     21 O          25.2931    2.7155   -5.2216 O.2       4 UNK        -0.5353 
     22 CA         23.6398    0.9893   -5.1482 C.3       4 UNK         0.0277 
     23 CB         23.1598    1.3223   -6.5720 C.3       4 UNK        -0.1981 
     24 N          23.5374   -0.4589   -4.9445 N.am      4 UNK        -0.4209 
     25 C          23.3008   -1.0733   -3.7809 C.2       3 UNK         0.4942 
     26 O          23.1859   -0.4775   -2.7102 O.2       3 UNK        -0.5208 
     27 CA         23.1695   -2.6085   -3.8034 C.3       3 UNK         0.0250 
     28 CB         21.7689   -3.0266   -4.2920 C.3       3 UNK        -0.1990 
     29 N          24.2212   -3.3350   -4.5343 N.am      3 UNK        -0.4232 
     30 C          24.5385   -3.3086   -5.8364 C.2       2 UNK         0.4993 
     31 O          23.9951   -2.5609   -6.6510 O.2       2 UNK        -0.5286 
     32 CA         25.6394   -4.2836   -6.3112 C.3       2 UNK         0.0209 
     33 CB         26.1252   -3.9743   -7.7398 C.3       2 UNK        -0.1931 
     34 N          26.8151   -4.3620   -5.4354 N.am      2 UNK        -0.4546 
     35 C          26.8876   -4.9803   -4.2485 C.2       1 UNK         0.5154 
     36 O          25.9047   -5.4498   -3.6733 O.2       1 UNK        -0.5181 
     37 C          28.1162    1.2522   -5.4436 C.2       5 UNK         0.5014 
     38 O          27.7841    0.5872   -6.4309 O.2       5 UNK        -0.5248 
     39 N          29.1077    2.1544   -5.4689 N.am      6 UNK        -0.4434 
     40 CA         29.9927    2.4404   -6.6017 C.3       6 UNK         0.0363 
     41 CB         30.9928    3.5319   -6.1938 C.3       6 UNK        -0.1936 
     42 C          29.2815    2.8278   -7.9091 C.2       6 UNK         0.5081 
     43 O          29.8411    2.5869   -8.9772 O.2       6 UNK        -0.5248 
     44 N          28.0567    3.3646   -7.8134 N.am      7 UNK        -0.4718 
     45 CA         27.1894    3.6867   -8.9505 C.3       7 UNK         0.0273 
     46 CB         25.9328    4.4085   -8.4378 C.3       7 UNK        -0.1935 
     47 C          26.7947    2.4654   -9.8036 C.2       7 UNK         0.5018 
     48 O          26.5227    2.6373  -10.9927 O.2       7 UNK        -0.5186 
     49 N          26.7804    1.2705   -9.1961 N.am      8 UNK        -0.4240 
     50 CA         26.5349   -0.0032   -9.8743 C.3       8 UNK         0.0235 
     51 CB         25.3088   -0.6857   -9.2492 C.3       8 UNK        -0.2000 
     52 C          27.7590   -0.9271   -9.8056 C.2       8 UNK         0.4941 
     53 O          28.0530   -1.6048  -10.7904 O.2       8 UNK        -0.5273 
     54 N          28.4449   -0.9563   -8.6540 N.am      9 UNK        -0.4262 
     55 CA         29.5643   -1.8601   -8.3810 C.3       9 UNK         0.0264 
     56 CB         29.7337   -1.9863   -6.8588 C.3       9 UNK        -0.1955 
     57 C          30.8951   -1.4401   -9.0286 C.2       9 UNK         0.5031 
     58 O          31.7784   -2.2889   -9.1515 O.2       9 UNK        -0.5390 
     59 N          31.0393   -0.1535   -9.3887 N.am      10 UNK        -0.4204 
     60 CA         32.2451    0.4837   -9.9452 C.3       10 UNK         0.0237 
     61 CB         32.5931   -0.1041  -11.3299 C.3       10 UNK        -0.1985 
     62 C          33.4585    0.5001   -8.9880 C.2       10 UNK         0.4970 
     63 O          34.5853    0.7065   -9.4410 O.2       10 UNK        -0.4914 
     64 N          33.2138    0.3028   -7.6864 N.am      11 UNK        -0.4285 
     65 CA         34.2186    0.2595   -6.6130 C.3       11 UNK         0.1007 
     66 C          34.7317    1.6443   -6.1169 C.2       11 UNK         0.5703 
     67 N          34.3143    2.7598   -6.7023 N.am      11 UNK        -0.7361 
     68 O          35.5412    1.7078   -5.1947 O.2       11 UNK        -0.4986 
     69 C69        33.7577   -0.6695   -5.4578 C.3       12 UNK        -0.0947 
     70 S70        32.1511   -0.2128   -4.7150 S.3       12 UNK        -0.2240 
     71 C71        32.6016    0.0459   -2.9724 C.3       12 UNK         0.0194 
     72 H72        31.5770   -6.3953   -6.4413 H         1 UNK         0.0906 
     73 H73        30.6657   -5.1644   -7.3190 H         1 UNK         0.0906 
     74 H74        31.5794   -4.7310   -5.8678 H         1 UNK         0.0906 
     75 H75        29.9740   -4.1252   -4.3794 H         1 UNK         0.3140 
     76 H76        28.3307   -6.1271   -3.2085 H         1 UNK         0.1085 
     77 H77        28.4071   -3.1056   -2.7088 H         1 UNK         0.0836 
     78 H78        27.5579   -4.2602   -1.7029 H         1 UNK         0.0836 
     79 H79        28.9130   -3.2311    0.3550 H         1 UNK         0.0731 
     80 H80        30.6405   -3.3668    0.5730 H         1 UNK         0.0731 
     81 H81        31.8609   -2.3076   -1.8403 H         1 UNK         0.1312 
     82 H82        30.7326    1.8181   -2.0644 H         1 UNK         0.1406 
     83 H83        28.3809   -0.9221    0.2523 H         1 UNK         0.1631 
     84 H84        29.0159    2.6625   -0.5398 H         1 UNK         0.0717 
     85 H85        28.2690    1.5858    0.6080 H         1 UNK         0.0717 
     86 H86        27.0658    3.0973   -3.3739 H         1 UNK         0.0934 
     87 H87        28.6272    2.4612   -2.9662 H         1 UNK         0.0934 
     88 H88        27.8156    0.1348   -3.6848 H         1 UNK         0.0739 
     89 H89        25.6760   -0.2127   -4.1414 H         1 UNK         0.3093 
     90 H90        22.9722    1.4898   -4.4439 H         1 UNK         0.0818 
     91 H91        22.1611    0.9275   -6.7593 H         1 UNK         0.0819 
     92 H92        23.1142    2.4006   -6.7302 H         1 UNK         0.0819 
     93 H93        23.8311    0.9127   -7.3254 H         1 UNK         0.0819 
     94 H94        23.6485   -1.0566   -5.7642 H         1 UNK         0.3041 
     95 H95        23.2608   -2.9384   -2.7671 H         1 UNK         0.0784 
     96 H96        20.9893   -2.5492   -3.6968 H         1 UNK         0.0793 
     97 H97        21.5987   -2.7473   -5.3324 H         1 UNK         0.0793 
     98 H98        21.6258   -4.1039   -4.2074 H         1 UNK         0.0793 
     99 H99        24.7417   -4.0090   -3.9771 H         1 UNK         0.3024 
    100 H100       25.1738   -5.2717   -6.3317 H         1 UNK         0.1171 
    101 H101       25.2967   -3.9753   -8.4494 H         1 UNK         0.0786 
    102 H102       26.8428   -4.7179   -8.0868 H         1 UNK         0.0786 
    103 H103       26.6030   -2.9968   -7.7940 H         1 UNK         0.0786 
    104 H104       27.6777   -4.0025   -5.8142 H         1 UNK         0.2977 
    105 H105       29.3034    2.6686   -4.6236 H         1 UNK         0.3127 
    106 H106       30.5522    1.5268   -6.8067 H         1 UNK         0.0770 
    107 H107       30.4874    4.4466   -5.8818 H         1 UNK         0.0814 
    108 H108       31.6479    3.7944   -7.0252 H         1 UNK         0.0814 
    109 H109       31.6298    3.2003   -5.3733 H         1 UNK         0.0814 
    110 H110       27.6650    3.5012   -6.8919 H         1 UNK         0.2983 
    111 H111       27.7391    4.3706   -9.6009 H         1 UNK         0.0947 
    112 H112       25.2831    4.6969   -9.2653 H         1 UNK         0.0806 
    113 H113       26.1891    5.3192   -7.8963 H         1 UNK         0.0806 
    114 H114       25.3478    3.7738   -7.7708 H         1 UNK         0.0806 
    115 H115       27.0288    1.2282   -8.2132 H         1 UNK         0.3000 
    116 H116       26.3215    0.1601  -10.9329 H         1 UNK         0.0850 
    117 H117       25.1403   -1.6711   -9.6853 H         1 UNK         0.0810 
    118 H118       25.4261   -0.8183   -8.1732 H         1 UNK         0.0810 
    119 H119       24.4050   -0.1016   -9.4203 H         1 UNK         0.0810 
    120 H120       28.1334   -0.3842   -7.8699 H         1 UNK         0.3040 
    121 H121       29.3128   -2.8475   -8.7750 H         1 UNK         0.0766 
    122 H122       28.8404   -2.3964   -6.3906 H         1 UNK         0.0812 
    123 H123       29.9317   -1.0193   -6.3996 H         1 UNK         0.0812 
    124 H124       30.5703   -2.6370   -6.6059 H         1 UNK         0.0812 
    125 H125       30.2562    0.4759   -9.2522 H         1 UNK         0.3205 
    126 H126       31.9849    1.5311  -10.1004 H         1 UNK         0.0754 
    127 H127       33.3783    0.4757  -11.8166 H         1 UNK         0.0769 
    128 H128       31.7280   -0.0938  -11.9930 H         1 UNK         0.0769 
    129 H129       32.9484   -1.1324  -11.2576 H         1 UNK         0.0769 
    130 H130       32.2641    0.1407   -7.3920 H         1 UNK         0.2981 
    131 H131       35.1063   -0.2131   -7.0374 H         1 UNK         0.0541 
    132 H132       33.6866    2.7198   -7.4871 H         1 UNK         0.3459 
    133 H133       34.6652    3.6462   -6.3766 H         1 UNK         0.3459 
    134 H134       34.5286   -0.7331   -4.6885 H         1 UNK         0.0612 
    135 H135       33.6533   -1.6862   -5.8398 H         1 UNK         0.0612 
    136 H136       32.9710    1.0642   -2.8427 H         1 UNK         0.0624 
    137 H137       33.4203   -0.6189   -2.6933 H         1 UNK         0.0624 
@<TRIPOS>BOND
     1    1    2 1    
     2    1   72 1    
     3    1   73 1    
     4    1   74 1    
     5    2    3 2    
     6    2    4 am   BACKBONE|DICT|INTERRES
     7    4    5 1    
     8    4   75 1    
     9    5    6 1    
    10    5   35 1    
    11    5   76 1    
    12    6    7 1    
    13    6   77 1    
    14    6   78 1    
    15    7    8 1    
    16    8    9 1    
    17    8   79 1    
    18    8   80 1    
    19    9   10 ar   
    20    9   14 ar   
    21   10   11 ar   
    22   10   81 1    
    23   11   12 ar   
    24   11   71 1    
    25   12   13 ar   
    26   12   82 1    
    27   13   14 ar   
    28   13   15 1    
    29   14   83 1    
    30   15   16 1    
    31   15   84 1    
    32   15   85 1    
    33   16   17 1    
    34   17   18 1    
    35   17   86 1    
    36   17   87 1    
    37   18   19 1    
    38   18   37 1    
    39   18   88 1    
    40   19   20 am   BACKBONE|DICT|INTERRES
    41   19   89 1    
    42   20   21 2    
    43   20   22 1    
    44   22   23 1    
    45   22   24 1    
    46   22   90 1    
    47   23   91 1    
    48   23   92 1    
    49   23   93 1    
    50   24   25 am   BACKBONE|DICT|INTERRES
    51   24   94 1    
    52   25   26 2    
    53   25   27 1    
    54   27   28 1    
    55   27   29 1    
    56   27   95 1    
    57   28   96 1    
    58   28   97 1    
    59   28   98 1    
    60   29   30 am   BACKBONE|DICT|INTERRES
    61   29   99 1    
    62   30   31 2    
    63   30   32 1    
    64   32   33 1    
    65   32   34 1    
    66   32  100 1    
    67   33  101 1    
    68   33  102 1    
    69   33  103 1    
    70   34   35 am   BACKBONE|DICT|INTERRES
    71   34  104 1    
    72   35   36 2    
    73   37   38 2    
    74   37   39 am   BACKBONE|DICT|INTERRES
    75   39   40 1    
    76   39  105 1    
    77   40   41 1    
    78   40   42 1    
    79   40  106 1    
    80   41  107 1    
    81   41  108 1    
    82   41  109 1    
    83   42   43 2    
    84   42   44 am   BACKBONE|DICT|INTERRES
    85   44   45 1    
    86   44  110 1    
    87   45   46 1    
    88   45   47 1    
    89   45  111 1    
    90   46  112 1    
    91   46  113 1    
    92   46  114 1    
    93   47   48 2    
    94   47   49 am   BACKBONE|DICT|INTERRES
    95   49   50 1    
    96   49  115 1    
    97   50   51 1    
    98   50   52 1    
    99   50  116 1    
   100   51  117 1    
   101   51  118 1    
   102   51  119 1    
   103   52   53 2    
   104   52   54 am   BACKBONE|DICT|INTERRES
   105   54   55 1    
   106   54  120 1    
   107   55   56 1    
   108   55   57 1    
   109   55  121 1    
   110   56  122 1    
   111   56  123 1    
   112   56  124 1    
   113   57   58 2    
   114   57   59 am   BACKBONE|DICT|INTERRES
   115   59   60 1    
   116   59  125 1    
   117   60   61 1    
   118   60   62 1    
   119   60  126 1    
   120   61  127 1    
   121   61  128 1    
   122   61  129 1    
   123   62   63 2    
   124   62   64 am   BACKBONE|DICT|INTERRES
   125   64   65 1    
   126   64  130 1    
   127   65   66 1    
   128   65   69 1    
   129   65  131 1    
   130   66   67 am   BACKBONE|DICT|INTERRES
   131   66   68 2    
   132   67  132 1    
   133   67  133 1    
   134   69   70 1    
   135   69  134 1    
   136   69  135 1    
   137   70   71 1    
   138   71  136 1    
   139   71  137 1    
@<TRIPOS>SUBSTRUCTURE
     1 UNK         1 GROUP             0       ****    0 ROOT    
