@<TRIPOS>MOLECULE
3R137
137   139    1
SMALL
USER_CHARGES


@<TRIPOS>ATOM
      1 CA         26.1559    0.1763    1.8175 C.3       0 UNK        -0.2020 
      2 C          26.3916    0.0297    0.3225 C.2       0 UNK         0.4855 
      3 O          25.5286    0.4006   -0.4737 O.2       0 UNK        -0.5197 
      4 N          27.5462   -0.5264   -0.0701 N.am      1 UNK        -0.4892 
      5 CA         27.9674   -0.7331   -1.4643 C.3       1 UNK         0.0835 
      6 C6         29.4437   -1.1927   -1.5781 C.3       12 UNK        -0.0855 
      7 S7         29.9475   -2.4944   -0.3928 S.3       12 UNK        -0.2931 
      8 C8         29.7151   -4.0449   -1.3308 C.3       12 UNK         0.0378 
      9 C9         30.4312   -4.0902   -2.6782 C.ar      12 UNK        -0.0802 
     10 C10        31.7232   -3.5755   -2.8390 C.ar      12 UNK        -0.0944 
     11 C11        32.3597   -3.6068   -4.0837 C.ar      12 UNK        -0.0787 
     12 C12        31.7017   -4.2035   -5.1670 C.ar      12 UNK        -0.0862 
     13 C13        30.4120   -4.7180   -5.0231 C.ar      12 UNK        -0.0733 
     14 C14        29.7857   -4.6657   -3.7758 C.ar      12 UNK        -0.0832 
     15 C15        29.6898   -5.3089   -6.2247 C.3       12 UNK         0.0240 
     16 S16        29.1240   -4.0127   -7.3724 S.3       12 UNK        -0.2522 
     17 C17        27.8819   -3.1498   -6.3531 C.3       12 UNK        -0.0967 
     18 CA         27.3990   -1.8241   -6.9864 C.3       5 UNK         0.0660 
     19 N          26.0742   -1.4414   -6.4749 N.am      5 UNK        -0.4015 
     20 C          25.3620   -0.3734   -6.8634 C.2       4 UNK         0.4946 
     21 O          25.7903    0.4988   -7.6172 O.2       4 UNK        -0.5353 
     22 CA         23.9283   -0.2582   -6.3426 C.3       4 UNK         0.0277 
     23 CB         23.0151   -1.2594   -7.0805 C.3       4 UNK        -0.1981 
     24 N          23.8566   -0.4371   -4.8906 N.am      4 UNK        -0.4209 
     25 C          22.7867   -0.1272   -4.1427 C.2       3 UNK         0.4942 
     26 O          21.7672    0.3889   -4.6050 O.2       3 UNK        -0.5208 
     27 CA         22.8532   -0.4177   -2.6273 C.3       3 UNK         0.0250 
     28 CB         21.4841   -0.8347   -2.0484 C.3       3 UNK        -0.1990 
     29 N          23.8925   -1.3756   -2.2312 N.am      3 UNK        -0.4232 
     30 C          24.0244   -2.6581   -2.6123 C.2       2 UNK         0.4993 
     31 O          23.2327   -3.2318   -3.3611 O.2       2 UNK        -0.5286 
     32 CA         25.2544   -3.4276   -2.0819 C.3       2 UNK         0.0209 
     33 CB         25.7949   -4.4539   -3.0996 C.3       2 UNK        -0.1931 
     34 N          26.3361   -2.5603   -1.5940 N.am      2 UNK        -0.4546 
     35 C          27.0225   -1.6348   -2.2839 C.2       1 UNK         0.5154 
     36 O          26.8845   -1.4245   -3.4922 O.2       1 UNK        -0.5181 
     37 C          28.4622   -0.7091   -6.8746 C.2       5 UNK         0.5014 
     38 O          29.2194   -0.4951   -7.8237 O.2       5 UNK        -0.5248 
     39 N          28.4530    0.0339   -5.7586 N.am      6 UNK        -0.4434 
     40 CA         29.3207    1.1982   -5.5394 C.3       6 UNK         0.0363 
     41 CB         29.1602    1.7058   -4.1001 C.3       6 UNK        -0.1936 
     42 C          29.1232    2.3547   -6.5402 C.2       6 UNK         0.5081 
     43 O          30.0449    3.1507   -6.7130 O.2       6 UNK        -0.5248 
     44 N          27.9520    2.4313   -7.1854 N.am      7 UNK        -0.4718 
     45 CA         27.6631    3.3802   -8.2600 C.3       7 UNK         0.0273 
     46 CB         26.2492    3.9557   -8.0727 C.3       7 UNK        -0.1935 
     47 C          27.7992    2.7029   -9.6310 C.2       7 UNK         0.5018 
     48 O          28.4504    3.2589  -10.5145 O.2       7 UNK        -0.5186 
     49 N          27.1913    1.5172   -9.7822 N.am      8 UNK        -0.4240 
     50 CA         27.0956    0.7670  -11.0371 C.3       8 UNK         0.0235 
     51 CB         26.1066   -0.3976  -10.8651 C.3       8 UNK        -0.2000 
     52 C          28.4457    0.2592  -11.5663 C.2       8 UNK         0.4941 
     53 O          28.6990    0.3748  -12.7661 O.2       8 UNK        -0.5273 
     54 N          29.2869   -0.2779  -10.6729 N.am      9 UNK        -0.4262 
     55 CA         30.6420   -0.7409  -10.9874 C.3       9 UNK         0.0264 
     56 CB         30.8875   -2.0865  -10.2806 C.3       9 UNK        -0.1955 
     57 C          31.7115    0.2884  -10.5808 C.2       9 UNK         0.5031 
     58 O          32.8926    0.0463  -10.8325 O.2       9 UNK        -0.5390 
     59 N          31.2926    1.3946   -9.9430 N.am      10 UNK        -0.4204 
     60 CA         32.1181    2.4649   -9.3645 C.3       10 UNK         0.0237 
     61 CB         32.8509    3.2514  -10.4726 C.3       10 UNK        -0.1985 
     62 C          33.0690    1.9674   -8.2530 C.2       10 UNK         0.4970 
     63 O          34.1435    2.5416   -8.0649 O.2       10 UNK        -0.4914 
     64 N          32.6738    0.8897   -7.5620 N.am      11 UNK        -0.4285 
     65 CA         33.4743    0.2005   -6.5441 C.3       11 UNK         0.1007 
     66 C          33.6636    1.0270   -5.2425 C.2       11 UNK         0.5703 
     67 N          34.8097    0.8960   -4.5853 N.am      11 UNK        -0.7361 
     68 O          32.7718    1.7511   -4.8037 O.2       11 UNK        -0.4986 
     69 C69        32.8928   -1.2087   -6.2599 C.3       12 UNK        -0.0947 
     70 S70        34.1988   -2.4314   -5.8976 S.3       12 UNK        -0.2240 
     71 C71        33.7499   -2.9816   -4.2148 C.3       12 UNK         0.0194 
     72 H72        25.2596   -0.3691    2.1113 H         1 UNK         0.0906 
     73 H73        26.9928   -0.2052    2.4020 H         1 UNK         0.0906 
     74 H74        26.0146    1.2261    2.0726 H         1 UNK         0.0906 
     75 H75        28.2150   -0.8350    0.6235 H         1 UNK         0.3140 
     76 H76        27.8931    0.2470   -1.9373 H         1 UNK         0.1085 
     77 H77        29.6908   -1.4851   -2.6006 H         1 UNK         0.0836 
     78 H78        30.0871   -0.3357   -1.3732 H         1 UNK         0.0836 
     79 H79        28.6452   -4.2077   -1.4616 H         1 UNK         0.0731 
     80 H80        30.0757   -4.8745   -0.7215 H         1 UNK         0.0731 
     81 H81        32.2299   -3.1304   -1.9936 H         1 UNK         0.1312 
     82 H82        32.1736   -4.2498   -6.1381 H         1 UNK         0.1406 
     83 H83        28.7880   -5.0666   -3.6650 H         1 UNK         0.1631 
     84 H84        28.8363   -5.9123   -5.9112 H         1 UNK         0.0717 
     85 H85        30.3628   -5.9830   -6.7565 H         1 UNK         0.0717 
     86 H86        27.0448   -3.8399   -6.2401 H         1 UNK         0.0934 
     87 H87        28.2681   -2.9735   -5.3481 H         1 UNK         0.0934 
     88 H88        27.2526   -2.0029   -8.0531 H         1 UNK         0.0739 
     89 H89        25.6452   -2.0989   -5.8416 H         1 UNK         0.3093 
     90 H90        23.5879    0.7534   -6.5753 H         1 UNK         0.0818 
     91 H91        21.9624   -1.0771   -6.8651 H         1 UNK         0.0819 
     92 H92        23.1358   -1.1777   -8.1619 H         1 UNK         0.0819 
     93 H93        23.2362   -2.2904   -6.8021 H         1 UNK         0.0819 
     94 H94        24.6833   -0.7903   -4.4256 H         1 UNK         0.3041 
     95 H95        23.1315    0.5279   -2.1594 H         1 UNK         0.0784 
     96 H96        20.7369   -0.0553   -2.2030 H         1 UNK         0.0793 
     97 H97        21.1067   -1.7436   -2.5181 H         1 UNK         0.0793 
     98 H98        21.5449   -1.0117   -0.9746 H         1 UNK         0.0793 
     99 H99        24.6029   -0.9852   -1.6184 H         1 UNK         0.3024 
    100 H100       24.8935   -3.9850   -1.2158 H         1 UNK         0.1171 
    101 H101       25.0176   -5.1549   -3.4063 H         1 UNK         0.0786 
    102 H102       26.1710   -3.9720   -4.0005 H         1 UNK         0.0786 
    103 H103       26.6015   -5.0459   -2.6693 H         1 UNK         0.0786 
    104 H104       26.5254   -2.6158   -0.6023 H         1 UNK         0.2977 
    105 H105       27.8087   -0.2223   -5.0186 H         1 UNK         0.3127 
    106 H106       30.3508    0.8585   -5.6599 H         1 UNK         0.0770 
    107 H107       28.1181    1.9106   -3.8528 H         1 UNK         0.0814 
    108 H108       29.7223    2.6281   -3.9444 H         1 UNK         0.0814 
    109 H109       29.5542    0.9812   -3.3917 H         1 UNK         0.0814 
    110 H110       27.2535    1.7135   -7.0220 H         1 UNK         0.2983 
    111 H111       28.3673    4.2149   -8.2307 H         1 UNK         0.0947 
    112 H112       26.0096    4.6658   -8.8653 H         1 UNK         0.0806 
    113 H113       26.1634    4.4876   -7.1251 H         1 UNK         0.0806 
    114 H114       25.4839    3.1787   -8.0886 H         1 UNK         0.0806 
    115 H115       26.6732    1.1378   -8.9897 H         1 UNK         0.3000 
    116 H116       26.6867    1.4459  -11.7886 H         1 UNK         0.0850 
    117 H117       25.9837   -0.9472  -11.7994 H         1 UNK         0.0810 
    118 H118       25.1207   -0.0398  -10.5674 H         1 UNK         0.0810 
    119 H119       26.4448   -1.1078  -10.1108 H         1 UNK         0.0810 
    120 H120       29.0170   -0.3366   -9.6925 H         1 UNK         0.3040 
    121 H121       30.7455   -0.9050  -12.0619 H         1 UNK         0.0766 
    122 H122       30.8811   -1.9849   -9.1953 H         1 UNK         0.0812 
    123 H123       31.8561   -2.5033  -10.5593 H         1 UNK         0.0812 
    124 H124       30.1294   -2.8218  -10.5505 H         1 UNK         0.0812 
    125 H125       30.2959    1.4979   -9.8153 H         1 UNK         0.3205 
    126 H126       31.4258    3.1576   -8.8868 H         1 UNK         0.0754 
    127 H127       33.3443    4.1346  -10.0651 H         1 UNK         0.0769 
    128 H128       32.1559    3.5957  -11.2386 H         1 UNK         0.0769 
    129 H129       33.6168    2.6476  -10.9604 H         1 UNK         0.0769 
    130 H130       31.7646    0.4979   -7.7581 H         1 UNK         0.2981 
    131 H131       34.4615    0.0759   -6.9949 H         1 UNK         0.0541 
    132 H132       35.5373    0.2851   -4.9250 H         1 UNK         0.3459 
    133 H133       34.9466    1.4141   -3.7320 H         1 UNK         0.3459 
    134 H134       32.3644   -1.5892   -7.1358 H         1 UNK         0.0612 
    135 H135       32.1468   -1.1806   -5.4630 H         1 UNK         0.0612 
    136 H136       34.4902   -3.7090   -3.8799 H         1 UNK         0.0624 
    137 H137       33.8331   -2.1220   -3.5474 H         1 UNK         0.0624 
@<TRIPOS>BOND
     1    1    2 1    
     2    1   72 1    
     3    1   73 1    
     4    1   74 1    
     5    2    3 2    
     6    2    4 am   BACKBONE|DICT|INTERRES
     7    4    5 1    
     8    4   75 1    
     9    5    6 1    
    10    5   35 1    
    11    5   76 1    
    12    6    7 1    
    13    6   77 1    
    14    6   78 1    
    15    7    8 1    
    16    8    9 1    
    17    8   79 1    
    18    8   80 1    
    19    9   10 ar   
    20    9   14 ar   
    21   10   11 ar   
    22   10   81 1    
    23   11   12 ar   
    24   11   71 1    
    25   12   13 ar   
    26   12   82 1    
    27   13   14 ar   
    28   13   15 1    
    29   14   83 1    
    30   15   16 1    
    31   15   84 1    
    32   15   85 1    
    33   16   17 1    
    34   17   18 1    
    35   17   86 1    
    36   17   87 1    
    37   18   19 1    
    38   18   37 1    
    39   18   88 1    
    40   19   20 am   BACKBONE|DICT|INTERRES
    41   19   89 1    
    42   20   21 2    
    43   20   22 1    
    44   22   23 1    
    45   22   24 1    
    46   22   90 1    
    47   23   91 1    
    48   23   92 1    
    49   23   93 1    
    50   24   25 am   BACKBONE|DICT|INTERRES
    51   24   94 1    
    52   25   26 2    
    53   25   27 1    
    54   27   28 1    
    55   27   29 1    
    56   27   95 1    
    57   28   96 1    
    58   28   97 1    
    59   28   98 1    
    60   29   30 am   BACKBONE|DICT|INTERRES
    61   29   99 1    
    62   30   31 2    
    63   30   32 1    
    64   32   33 1    
    65   32   34 1    
    66   32  100 1    
    67   33  101 1    
    68   33  102 1    
    69   33  103 1    
    70   34   35 am   BACKBONE|DICT|INTERRES
    71   34  104 1    
    72   35   36 2    
    73   37   38 2    
    74   37   39 am   BACKBONE|DICT|INTERRES
    75   39   40 1    
    76   39  105 1    
    77   40   41 1    
    78   40   42 1    
    79   40  106 1    
    80   41  107 1    
    81   41  108 1    
    82   41  109 1    
    83   42   43 2    
    84   42   44 am   BACKBONE|DICT|INTERRES
    85   44   45 1    
    86   44  110 1    
    87   45   46 1    
    88   45   47 1    
    89   45  111 1    
    90   46  112 1    
    91   46  113 1    
    92   46  114 1    
    93   47   48 2    
    94   47   49 am   BACKBONE|DICT|INTERRES
    95   49   50 1    
    96   49  115 1    
    97   50   51 1    
    98   50   52 1    
    99   50  116 1    
   100   51  117 1    
   101   51  118 1    
   102   51  119 1    
   103   52   53 2    
   104   52   54 am   BACKBONE|DICT|INTERRES
   105   54   55 1    
   106   54  120 1    
   107   55   56 1    
   108   55   57 1    
   109   55  121 1    
   110   56  122 1    
   111   56  123 1    
   112   56  124 1    
   113   57   58 2    
   114   57   59 am   BACKBONE|DICT|INTERRES
   115   59   60 1    
   116   59  125 1    
   117   60   61 1    
   118   60   62 1    
   119   60  126 1    
   120   61  127 1    
   121   61  128 1    
   122   61  129 1    
   123   62   63 2    
   124   62   64 am   BACKBONE|DICT|INTERRES
   125   64   65 1    
   126   64  130 1    
   127   65   66 1    
   128   65   69 1    
   129   65  131 1    
   130   66   67 am   BACKBONE|DICT|INTERRES
   131   66   68 2    
   132   67  132 1    
   133   67  133 1    
   134   69   70 1    
   135   69  134 1    
   136   69  135 1    
   137   70   71 1    
   138   71  136 1    
   139   71  137 1    
@<TRIPOS>SUBSTRUCTURE
     1 UNK         1 GROUP             0       ****    0 ROOT    
