@<TRIPOS>MOLECULE
3R137
137   139    1
SMALL
USER_CHARGES


@<TRIPOS>ATOM
      1 CA         26.5052   -5.1981    0.5473 C.3       0 UNK        -0.2020 
      2 C          26.3231   -3.7039    0.7642 C.2       0 UNK         0.4855 
      3 O          25.6907   -3.2952    1.7388 O.2       0 UNK        -0.5197 
      4 N          26.8590   -2.8793   -0.1439 N.am      1 UNK        -0.4892 
      5 CA         26.7991   -1.4119   -0.1293 C.3       1 UNK         0.0835 
      6 C6         27.9961   -0.7822   -0.8944 C.3       12 UNK        -0.0855 
      7 S7         28.3143   -1.5023   -2.5465 S.3       12 UNK        -0.2931 
      8 C8         29.9373   -2.2987   -2.2749 C.3       12 UNK         0.0378 
      9 C9         30.5033   -2.8721   -3.5676 C.ar      12 UNK        -0.0802 
     10 C10        31.7469   -2.4571   -4.0597 C.ar      12 UNK        -0.0944 
     11 C11        32.2440   -2.9782   -5.2598 C.ar      12 UNK        -0.0787 
     12 C12        31.4713   -3.8912   -5.9860 C.ar      12 UNK        -0.0862 
     13 C13        30.2323   -4.3182   -5.4993 C.ar      12 UNK        -0.0733 
     14 C14        29.7744   -3.8307   -4.2734 C.ar      12 UNK        -0.0832 
     15 C15        29.3932   -5.3166   -6.2847 C.3       12 UNK         0.0240 
     16 S16        28.3387   -4.5078   -7.5341 S.3       12 UNK        -0.2522 
     17 C17        27.1454   -3.5723   -6.5081 C.3       12 UNK        -0.0967 
     18 CA         27.0002   -2.0674   -6.8547 C.3       5 UNK         0.0660 
     19 N          26.0657   -1.4051   -5.9407 N.am      5 UNK        -0.4015 
     20 C          25.5504   -0.1801   -6.1175 C.2       4 UNK         0.4946 
     21 O          25.8223    0.5320   -7.0865 O.2       4 UNK        -0.5353 
     22 CA         24.6218    0.3555   -5.0094 C.3       4 UNK         0.0277 
     23 CB         23.5481    1.3210   -5.5539 C.3       4 UNK        -0.1981 
     24 N          24.0238   -0.6947   -4.1717 N.am      4 UNK        -0.4209 
     25 C          23.1575   -1.6509   -4.5519 C.2       3 UNK         0.4942 
     26 O          22.7277   -1.7675   -5.6996 O.2       3 UNK        -0.5208 
     27 CA         22.7164   -2.6833   -3.4938 C.3       3 UNK         0.0250 
     28 CB         23.3910   -4.0402   -3.7602 C.3       3 UNK        -0.1990 
     29 N          23.0050   -2.2793   -2.1166 N.am      3 UNK        -0.4232 
     30 C          22.3822   -1.2968   -1.4514 C.2       2 UNK         0.4993 
     31 O          21.4080   -0.6846   -1.8899 O.2       2 UNK        -0.5286 
     32 CA         22.9593   -0.9101   -0.0767 C.3       2 UNK         0.0209 
     33 CB         22.1023   -1.5061    1.0521 C.3       2 UNK        -0.1931 
     34 N          24.3612   -1.2987    0.1329 N.am      2 UNK        -0.4546 
     35 C          25.4168   -0.8868   -0.5843 C.2       1 UNK         0.5154 
     36 O          25.3125   -0.1614   -1.5756 O.2       1 UNK        -0.5181 
     37 C          28.3311   -1.2886   -6.9746 C.2       5 UNK         0.5014 
     38 O          28.8780   -1.2184   -8.0741 O.2       5 UNK        -0.5248 
     39 N          28.7705   -0.6258   -5.8914 N.am      6 UNK        -0.4434 
     40 CA         29.9079    0.2996   -5.8942 C.3       6 UNK         0.0363 
     41 CB         30.1580    0.8463   -4.4794 C.3       6 UNK        -0.1936 
     42 C          29.7522    1.4779   -6.8683 C.2       6 UNK         0.5081 
     43 O          30.7439    1.8880   -7.4678 O.2       6 UNK        -0.5248 
     44 N          28.5275    2.0001   -7.0214 N.am      7 UNK        -0.4718 
     45 CA         28.2240    3.0790   -7.9631 C.3       7 UNK         0.0273 
     46 CB         26.9045    3.7641   -7.5718 C.3       7 UNK        -0.1935 
     47 C          28.1737    2.5685   -9.4105 C.2       7 UNK         0.5018 
     48 O          28.6620    3.2555  -10.3075 O.2       7 UNK        -0.5186 
     49 N          27.6118    1.3669   -9.6064 N.am      8 UNK        -0.4240 
     50 CA         27.5252    0.6916  -10.9036 C.3       8 UNK         0.0235 
     51 CB         26.5750   -0.5124  -10.7968 C.3       8 UNK        -0.2000 
     52 C          28.8998    0.2590  -11.4434 C.2       8 UNK         0.4941 
     53 O          29.1903    0.4930  -12.6170 O.2       8 UNK        -0.5273 
     54 N          29.7205   -0.3526  -10.5793 N.am      9 UNK        -0.4262 
     55 CA         31.0680   -0.8317  -10.8983 C.3       9 UNK         0.0264 
     56 CB         31.4216   -1.9818   -9.9407 C.3       9 UNK        -0.1955 
     57 C          32.1456    0.2687  -10.8521 C.2       9 UNK         0.5031 
     58 O          33.2617    0.0178  -11.3095 O.2       9 UNK        -0.5390 
     59 N          31.8048    1.4487  -10.3106 N.am      10 UNK        -0.4204 
     60 CA         32.6653    2.6196  -10.0959 C.3       10 UNK         0.0237 
     61 CB         33.1346    3.2225  -11.4376 C.3       10 UNK        -0.1985 
     62 C          33.8204    2.3232   -9.1185 C.2       10 UNK         0.4970 
     63 O          34.9806    2.6188   -9.4123 O.2       10 UNK        -0.4914 
     64 N          33.4666    1.7397   -7.9684 N.am      11 UNK        -0.4285 
     65 CA         34.3796    1.3985   -6.8664 C.3       11 UNK         0.1007 
     66 C          34.7549    2.6074   -5.9617 C.2       11 UNK         0.5703 
     67 N          34.0912    3.7532   -6.0679 N.am      11 UNK        -0.7361 
     68 O          35.6751    2.5060   -5.1538 O.2       11 UNK        -0.4986 
     69 C69        33.8374    0.2174   -6.0170 C.3       12 UNK        -0.0947 
     70 S70        33.5862   -1.2878   -7.0151 S.3       12 UNK        -0.2240 
     71 C71        33.6329   -2.5997   -5.7565 C.3       12 UNK         0.0194 
     72 H72        25.5348   -5.6838    0.4487 H         1 UNK         0.0906 
     73 H73        27.0854   -5.4129   -0.3500 H         1 UNK         0.0906 
     74 H74        27.0223   -5.6396    1.3987 H         1 UNK         0.0906 
     75 H75        27.3423   -3.2649   -0.9432 H         1 UNK         0.3140 
     76 H76        26.8968   -1.0866    0.9094 H         1 UNK         0.1085 
     77 H77        27.8658    0.2962   -1.0048 H         1 UNK         0.0836 
     78 H78        28.8946   -0.8929   -0.2856 H         1 UNK         0.0836 
     79 H79        29.8340   -3.0980   -1.5397 H         1 UNK         0.0731 
     80 H80        30.6277   -1.5689   -1.8491 H         1 UNK         0.0731 
     81 H81        32.3340   -1.7368   -3.5067 H         1 UNK         0.1312 
     82 H82        31.8413   -4.2798   -6.9250 H         1 UNK         0.1406 
     83 H83        28.8324   -4.1753   -3.8709 H         1 UNK         0.1631 
     84 H84        28.7691   -5.9068   -5.6118 H         1 UNK         0.0717 
     85 H85        30.0491   -6.0277   -6.7890 H         1 UNK         0.0717 
     86 H86        26.1756   -4.0580   -6.6283 H         1 UNK         0.0934 
     87 H87        27.3854   -3.6883   -5.4547 H         1 UNK         0.0934 
     88 H88        26.5408   -2.0206   -7.8441 H         1 UNK         0.0739 
     89 H89        25.8022   -1.9128   -5.1101 H         1 UNK         0.3093 
     90 H90        25.2655    0.9301   -4.3415 H         1 UNK         0.0818 
     91 H91        22.9108    1.6973   -4.7537 H         1 UNK         0.0819 
     92 H92        24.0072    2.1858   -6.0347 H         1 UNK         0.0819 
     93 H93        22.9095    0.8411   -6.2958 H         1 UNK         0.0819 
     94 H94        24.3271   -0.6768   -3.2009 H         1 UNK         0.3041 
     95 H95        21.6360   -2.8090   -3.5934 H         1 UNK         0.0784 
     96 H96        23.1771   -4.3924   -4.7705 H         1 UNK         0.0793 
     97 H97        24.4754   -3.9820   -3.6584 H         1 UNK         0.0793 
     98 H98        23.0296   -4.8046   -3.0719 H         1 UNK         0.0793 
     99 H99        23.7846   -2.7317   -1.6623 H         1 UNK         0.3024 
    100 H100       22.9089    0.1790   -0.0102 H         1 UNK         0.1171 
    101 H101       22.4341   -1.1559    2.0297 H         1 UNK         0.0786 
    102 H102       21.0558   -1.2168    0.9448 H         1 UNK         0.0786 
    103 H103       22.1414   -2.5962    1.0547 H         1 UNK         0.0786 
    104 H104       24.5530   -1.9368    0.9011 H         1 UNK         0.2977 
    105 H105       28.2915   -0.7534   -5.0107 H         1 UNK         0.3127 
    106 H106       30.7823   -0.2717   -6.2099 H         1 UNK         0.0770 
    107 H107       29.2611    1.2982   -4.0545 H         1 UNK         0.0814 
    108 H108       30.9360    1.6112   -4.4832 H         1 UNK         0.0814 
    109 H109       30.4934    0.0646   -3.8028 H         1 UNK         0.0814 
    110 H110       27.7427    1.5693   -6.5504 H         1 UNK         0.2983 
    111 H111       29.0196    3.8255   -7.9021 H         1 UNK         0.0947 
    112 H112       26.6991    4.6107   -8.2283 H         1 UNK         0.0806 
    113 H113       26.9431    4.1474   -6.5522 H         1 UNK         0.0806 
    114 H114       26.0537    3.0864   -7.6438 H         1 UNK         0.0806 
    115 H115       27.2200    0.8857   -8.8050 H         1 UNK         0.3000 
    116 H116       27.0962    1.3986  -11.6171 H         1 UNK         0.0850 
    117 H117       26.4411   -0.9885  -11.7691 H         1 UNK         0.0810 
    118 H118       25.5885   -0.2108  -10.4440 H         1 UNK         0.0810 
    119 H119       26.9577   -1.2714  -10.1143 H         1 UNK         0.0810 
    120 H120       29.3822   -0.5580   -9.6374 H         1 UNK         0.3040 
    121 H121       31.0641   -1.2320  -11.9143 H         1 UNK         0.0766 
    122 H122       31.3975   -1.6557   -8.9010 H         1 UNK         0.0812 
    123 H123       32.4209   -2.3713  -10.1388 H         1 UNK         0.0812 
    124 H124       30.7218   -2.8116  -10.0414 H         1 UNK         0.0812 
    125 H125       30.8713    1.5265   -9.9300 H         1 UNK         0.3205 
    126 H126       32.0384    3.3667   -9.6066 H         1 UNK         0.0754 
    127 H127       33.6708    4.1586  -11.2771 H         1 UNK         0.0769 
    128 H128       32.2889    3.4413  -12.0897 H         1 UNK         0.0769 
    129 H129       33.8071    2.5522  -11.9737 H         1 UNK         0.0769 
    130 H130       32.4739    1.6007   -7.7878 H         1 UNK         0.2981 
    131 H131       35.3191    1.0669   -7.3127 H         1 UNK         0.0541 
    132 H132       33.3291    3.8423   -6.7203 H         1 UNK         0.3459 
    133 H133       34.3489    4.5299   -5.4799 H         1 UNK         0.3459 
    134 H134       32.8978    0.4856   -5.5350 H         1 UNK         0.0612 
    135 H135       34.5380   -0.0182   -5.2141 H         1 UNK         0.0612 
    136 H136       34.1054   -3.4781   -6.1984 H         1 UNK         0.0624 
    137 H137       34.2737   -2.3069   -4.9238 H         1 UNK         0.0624 
@<TRIPOS>BOND
     1    1    2 1    
     2    1   72 1    
     3    1   73 1    
     4    1   74 1    
     5    2    3 2    
     6    2    4 am   BACKBONE|DICT|INTERRES
     7    4    5 1    
     8    4   75 1    
     9    5    6 1    
    10    5   35 1    
    11    5   76 1    
    12    6    7 1    
    13    6   77 1    
    14    6   78 1    
    15    7    8 1    
    16    8    9 1    
    17    8   79 1    
    18    8   80 1    
    19    9   10 ar   
    20    9   14 ar   
    21   10   11 ar   
    22   10   81 1    
    23   11   12 ar   
    24   11   71 1    
    25   12   13 ar   
    26   12   82 1    
    27   13   14 ar   
    28   13   15 1    
    29   14   83 1    
    30   15   16 1    
    31   15   84 1    
    32   15   85 1    
    33   16   17 1    
    34   17   18 1    
    35   17   86 1    
    36   17   87 1    
    37   18   19 1    
    38   18   37 1    
    39   18   88 1    
    40   19   20 am   BACKBONE|DICT|INTERRES
    41   19   89 1    
    42   20   21 2    
    43   20   22 1    
    44   22   23 1    
    45   22   24 1    
    46   22   90 1    
    47   23   91 1    
    48   23   92 1    
    49   23   93 1    
    50   24   25 am   BACKBONE|DICT|INTERRES
    51   24   94 1    
    52   25   26 2    
    53   25   27 1    
    54   27   28 1    
    55   27   29 1    
    56   27   95 1    
    57   28   96 1    
    58   28   97 1    
    59   28   98 1    
    60   29   30 am   BACKBONE|DICT|INTERRES
    61   29   99 1    
    62   30   31 2    
    63   30   32 1    
    64   32   33 1    
    65   32   34 1    
    66   32  100 1    
    67   33  101 1    
    68   33  102 1    
    69   33  103 1    
    70   34   35 am   BACKBONE|DICT|INTERRES
    71   34  104 1    
    72   35   36 2    
    73   37   38 2    
    74   37   39 am   BACKBONE|DICT|INTERRES
    75   39   40 1    
    76   39  105 1    
    77   40   41 1    
    78   40   42 1    
    79   40  106 1    
    80   41  107 1    
    81   41  108 1    
    82   41  109 1    
    83   42   43 2    
    84   42   44 am   BACKBONE|DICT|INTERRES
    85   44   45 1    
    86   44  110 1    
    87   45   46 1    
    88   45   47 1    
    89   45  111 1    
    90   46  112 1    
    91   46  113 1    
    92   46  114 1    
    93   47   48 2    
    94   47   49 am   BACKBONE|DICT|INTERRES
    95   49   50 1    
    96   49  115 1    
    97   50   51 1    
    98   50   52 1    
    99   50  116 1    
   100   51  117 1    
   101   51  118 1    
   102   51  119 1    
   103   52   53 2    
   104   52   54 am   BACKBONE|DICT|INTERRES
   105   54   55 1    
   106   54  120 1    
   107   55   56 1    
   108   55   57 1    
   109   55  121 1    
   110   56  122 1    
   111   56  123 1    
   112   56  124 1    
   113   57   58 2    
   114   57   59 am   BACKBONE|DICT|INTERRES
   115   59   60 1    
   116   59  125 1    
   117   60   61 1    
   118   60   62 1    
   119   60  126 1    
   120   61  127 1    
   121   61  128 1    
   122   61  129 1    
   123   62   63 2    
   124   62   64 am   BACKBONE|DICT|INTERRES
   125   64   65 1    
   126   64  130 1    
   127   65   66 1    
   128   65   69 1    
   129   65  131 1    
   130   66   67 am   BACKBONE|DICT|INTERRES
   131   66   68 2    
   132   67  132 1    
   133   67  133 1    
   134   69   70 1    
   135   69  134 1    
   136   69  135 1    
   137   70   71 1    
   138   71  136 1    
   139   71  137 1    
@<TRIPOS>SUBSTRUCTURE
     1 UNK         1 GROUP             0       ****    0 ROOT    
