@<TRIPOS>MOLECULE
3R137
137   139    1
SMALL
USER_CHARGES


@<TRIPOS>ATOM
      1 CA         24.1088   -4.5260   -8.4221 C.3       0 UNK        -0.2020 
      2 C          24.4416   -4.9828   -7.0108 C.2       0 UNK         0.4855 
      3 O          23.7304   -5.8167   -6.4485 O.2       0 UNK        -0.5197 
      4 N          25.5291   -4.4484   -6.4412 N.am      1 UNK        -0.4892 
      5 CA         25.9575   -4.7084   -5.0628 C.3       1 UNK         0.0835 
      6 C6         27.4492   -4.3344   -4.8607 C.3       12 UNK        -0.0855 
      7 S7         28.2217   -5.3302   -3.5421 S.3       12 UNK        -0.2931 
      8 C8         29.9974   -5.1390   -3.9243 C.3       12 UNK         0.0378 
      9 C9         30.6334   -3.8123   -3.5014 C.ar      12 UNK        -0.0802 
     10 C10        31.8741   -3.4701   -4.0501 C.ar      12 UNK        -0.0944 
     11 C11        32.5406   -2.3004   -3.6720 C.ar      12 UNK        -0.0787 
     12 C12        31.9471   -1.4677   -2.7152 C.ar      12 UNK        -0.0862 
     13 C13        30.7051   -1.7847   -2.1615 C.ar      12 UNK        -0.0733 
     14 C14        30.0536   -2.9570   -2.5540 C.ar      12 UNK        -0.0832 
     15 C15        30.0851   -0.8704   -1.1145 C.3       12 UNK         0.0240 
     16 S16        28.6752    0.0787   -1.7647 S.3       12 UNK        -0.2522 
     17 C17        29.4283    1.0710   -3.1013 C.3       12 UNK        -0.0967 
     18 CA         28.9249    0.6331   -4.4999 C.3       5 UNK         0.0660 
     19 N          27.4639    0.6501   -4.5891 N.am      5 UNK        -0.4015 
     20 C          26.7187    0.1965   -5.6026 C.2       4 UNK         0.4946 
     21 O          27.1891   -0.2531   -6.6522 O.2       4 UNK        -0.5353 
     22 CA         25.1902    0.2797   -5.4100 C.3       4 UNK         0.0277 
     23 CB         24.4139   -0.4881   -6.4954 C.3       4 UNK        -0.1981 
     24 N          24.7495   -0.1777   -4.0842 N.am      4 UNK        -0.4209 
     25 C          24.7882    0.5623   -2.9641 C.2       3 UNK         0.4942 
     26 O          25.2932    1.6854   -2.9293 O.2       3 UNK        -0.5208 
     27 CA         24.1744   -0.0074   -1.6716 C.3       3 UNK         0.0250 
     28 CB         22.8546    0.7132   -1.3485 C.3       3 UNK        -0.1990 
     29 N          23.9214   -1.4470   -1.7300 N.am      3 UNK        -0.4232 
     30 C          24.8175   -2.3927   -1.4212 C.2       2 UNK         0.4993 
     31 O          25.9526   -2.1567   -1.0083 O.2       2 UNK        -0.5286 
     32 CA         24.3933   -3.8595   -1.6276 C.3       2 UNK         0.0209 
     33 CB         22.8645   -4.0737   -1.7272 C.3       2 UNK        -0.1931 
     34 N          25.0781   -4.4420   -2.7872 N.am      2 UNK        -0.4546 
     35 C          25.0453   -3.9854   -4.0474 C.2       1 UNK         0.5154 
     36 O          24.3622   -3.0213   -4.4048 O.2       1 UNK        -0.5181 
     37 C          29.5610    1.4809   -5.6155 C.2       5 UNK         0.5014 
     38 O          30.3758    0.9736   -6.3837 O.2       5 UNK        -0.5248 
     39 N          29.1510    2.7507   -5.7195 N.am      6 UNK        -0.4434 
     40 CA         29.5790    3.6422   -6.7993 C.3       6 UNK         0.0363 
     41 CB         29.4687    5.1017   -6.3304 C.3       6 UNK        -0.1936 
     42 C          28.7659    3.4296   -8.0872 C.2       6 UNK         0.5081 
     43 O          29.3046    3.6207   -9.1766 O.2       6 UNK        -0.5248 
     44 N          27.4830    3.0704   -7.9402 N.am      7 UNK        -0.4718 
     45 CA         26.5146    3.0127   -9.0360 C.3       7 UNK         0.0273 
     46 CB         25.0883    3.0863   -8.4671 C.3       7 UNK        -0.1935 
     47 C          26.6719    1.7925   -9.9564 C.2       7 UNK         0.5018 
     48 O          26.5553    1.9559  -11.1719 O.2       7 UNK        -0.5186 
     49 N          26.9025    0.6045   -9.3795 N.am      8 UNK        -0.4240 
     50 CA         26.9718   -0.6594  -10.1187 C.3       8 UNK         0.0235 
     51 CB         25.8812   -1.6213   -9.6217 C.3       8 UNK        -0.2000 
     52 C          28.3522   -1.3104  -10.0039 C.2       8 UNK         0.4941 
     53 O          28.8916   -1.7380  -11.0252 O.2       8 UNK        -0.5273 
     54 N          28.9073   -1.3824   -8.7838 N.am      9 UNK        -0.4262 
     55 CA         30.2172   -2.0022   -8.5404 C.3       9 UNK         0.0264 
     56 CB         30.3471   -2.3999   -7.0618 C.3       9 UNK        -0.1955 
     57 C          31.4061   -1.1330   -8.9937 C.2       9 UNK         0.5031 
     58 O          32.5003   -1.6708   -9.1711 O.2       9 UNK        -0.5390 
     59 N          31.1696    0.1756   -9.1797 N.am      10 UNK        -0.4204 
     60 CA         32.1229    1.2117   -9.5974 C.3       10 UNK         0.0237 
     61 CB         32.5667    0.9890  -11.0589 C.3       10 UNK        -0.1985 
     62 C          33.3061    1.3652   -8.6210 C.2       10 UNK         0.4970 
     63 O          34.4449    1.5560   -9.0520 O.2       10 UNK        -0.4914 
     64 N          33.0089    1.2707   -7.3196 N.am      11 UNK        -0.4285 
     65 CA         33.9793    1.3311   -6.2181 C.3       11 UNK         0.1007 
     66 C          34.5863    2.7402   -5.9473 C.2       11 UNK         0.5703 
     67 N          34.0559    3.8150   -6.5197 N.am      11 UNK        -0.7361 
     68 O          35.5627    2.8609   -5.2116 O.2       11 UNK        -0.4986 
     69 C69        33.3780    0.7003   -4.9317 C.3       12 UNK        -0.0947 
     70 S70        34.5757   -0.3248   -4.0165 S.3       12 UNK        -0.2240 
     71 C71        33.9022   -2.0001   -4.3089 C.3       12 UNK         0.0194 
     72 H72        23.3695   -5.1852   -8.8765 H         1 UNK         0.0906 
     73 H73        23.6998   -3.5160   -8.4075 H         1 UNK         0.0906 
     74 H74        24.9973   -4.5363   -9.0524 H         1 UNK         0.0906 
     75 H75        26.0540   -3.7443   -6.9380 H         1 UNK         0.3140 
     76 H76        25.8422   -5.7826   -4.8972 H         1 UNK         0.1085 
     77 H77        27.5842   -3.2695   -4.6556 H         1 UNK         0.0836 
     78 H78        28.0020   -4.5384   -5.7784 H         1 UNK         0.0836 
     79 H79        30.5354   -5.9420   -3.4189 H         1 UNK         0.0731 
     80 H80        30.1479   -5.2988   -4.9932 H         1 UNK         0.0731 
     81 H81        32.3340   -4.1293   -4.7741 H         1 UNK         0.1312 
     82 H82        32.4457   -0.5676   -2.3874 H         1 UNK         0.1406 
     83 H83        29.1005   -3.1965   -2.1032 H         1 UNK         0.1631 
     84 H84        30.8260   -0.1779   -0.7121 H         1 UNK         0.0717 
     85 H85        29.7419   -1.4713   -0.2711 H         1 UNK         0.0717 
     86 H86        30.5157    1.0019   -3.0448 H         1 UNK         0.0934 
     87 H87        29.1852    2.1177   -2.9093 H         1 UNK         0.0934 
     88 H88        29.2400   -0.4002   -4.6569 H         1 UNK         0.0739 
     89 H89        26.9704    1.0127   -3.7796 H         1 UNK         0.3093 
     90 H90        24.9228    1.3335   -5.5093 H         1 UNK         0.0818 
     91 H91        23.3377   -0.4282   -6.3333 H         1 UNK         0.0819 
     92 H92        24.6113   -0.0780   -7.4850 H         1 UNK         0.0819 
     93 H93        24.6895   -1.5417   -6.5199 H         1 UNK         0.0819 
     94 H94        24.4125   -1.1368   -4.0377 H         1 UNK         0.3041 
     95 H95        24.8786    0.1996   -0.8625 H         1 UNK         0.0784 
     96 H96        23.0080    1.7898   -1.2611 H         1 UNK         0.0793 
     97 H97        22.1052    0.5530   -2.1248 H         1 UNK         0.0793 
     98 H98        22.4369    0.3703   -0.4016 H         1 UNK         0.0793 
     99 H99        23.0246   -1.7392   -2.0914 H         1 UNK         0.3024 
    100 H100       24.7447   -4.4011   -0.7475 H         1 UNK         0.1171 
    101 H101       22.6245   -5.1366   -1.7583 H         1 UNK         0.0786 
    102 H102       22.4324   -3.6182   -2.6187 H         1 UNK         0.0786 
    103 H103       22.3515   -3.6582   -0.8586 H         1 UNK         0.0786 
    104 H104       25.7228   -5.1933   -2.5789 H         1 UNK         0.2977 
    105 H105       28.4832    3.1121   -5.0536 H         1 UNK         0.3127 
    106 H106       30.6280    3.4467   -7.0334 H         1 UNK         0.0770 
    107 H107       28.4428    5.3715   -6.0765 H         1 UNK         0.0814 
    108 H108       29.8017    5.7873   -7.1109 H         1 UNK         0.0814 
    109 H109       30.0915    5.2843   -5.4545 H         1 UNK         0.0814 
    110 H110       27.1291    2.9272   -7.0074 H         1 UNK         0.2983 
    111 H111       26.6635    3.8994   -9.6572 H         1 UNK         0.0947 
    112 H112       24.3474    3.0589   -9.2676 H         1 UNK         0.0806 
    113 H113       24.9293    4.0125   -7.9145 H         1 UNK         0.0806 
    114 H114       24.8727    2.2554   -7.7976 H         1 UNK         0.0806 
    115 H115       27.0054    0.5444   -8.3702 H         1 UNK         0.3000 
    116 H116       26.7908   -0.4900  -11.1824 H         1 UNK         0.0850 
    117 H117       25.8920   -2.5456  -10.2004 H         1 UNK         0.0810 
    118 H118       24.8882   -1.1851   -9.7297 H         1 UNK         0.0810 
    119 H119       26.0221   -1.8889   -8.5749 H         1 UNK         0.0810 
    120 H120       28.4010   -1.0221   -7.9783 H         1 UNK         0.3040 
    121 H121       30.2651   -2.9242   -9.1243 H         1 UNK         0.0766 
    122 H122       31.2891   -2.9197   -6.8849 H         1 UNK         0.0812 
    123 H123       29.5459   -3.0715   -6.7595 H         1 UNK         0.0812 
    124 H124       30.3284   -1.5390   -6.3986 H         1 UNK         0.0812 
    125 H125       30.2449    0.5042   -8.9393 H         1 UNK         0.3205 
    126 H126       31.5805    2.1571   -9.5612 H         1 UNK         0.0754 
    127 H127       33.1716    1.8233  -11.4162 H         1 UNK         0.0769 
    128 H128       31.7075    0.9046  -11.7244 H         1 UNK         0.0769 
    129 H129       33.1647    0.0834  -11.1671 H         1 UNK         0.0769 
    130 H130       32.0390    1.1185   -7.0469 H         1 UNK         0.2981 
    131 H131       34.8186    0.7105   -6.5379 H         1 UNK         0.0541 
    132 H132       33.2665    3.7278   -7.1374 H         1 UNK         0.3459 
    133 H133       34.4622    4.7196   -6.3408 H         1 UNK         0.3459 
    134 H134       32.5287    0.0638   -5.1822 H         1 UNK         0.0612 
    135 H135       32.9723    1.4595   -4.2604 H         1 UNK         0.0612 
    136 H136       33.8391   -2.1581   -5.3869 H         1 UNK         0.0624 
    137 H137       34.6244   -2.7249   -3.9314 H         1 UNK         0.0624 
@<TRIPOS>BOND
     1    1    2 1    
     2    1   72 1    
     3    1   73 1    
     4    1   74 1    
     5    2    3 2    
     6    2    4 am   BACKBONE|DICT|INTERRES
     7    4    5 1    
     8    4   75 1    
     9    5    6 1    
    10    5   35 1    
    11    5   76 1    
    12    6    7 1    
    13    6   77 1    
    14    6   78 1    
    15    7    8 1    
    16    8    9 1    
    17    8   79 1    
    18    8   80 1    
    19    9   10 ar   
    20    9   14 ar   
    21   10   11 ar   
    22   10   81 1    
    23   11   12 ar   
    24   11   71 1    
    25   12   13 ar   
    26   12   82 1    
    27   13   14 ar   
    28   13   15 1    
    29   14   83 1    
    30   15   16 1    
    31   15   84 1    
    32   15   85 1    
    33   16   17 1    
    34   17   18 1    
    35   17   86 1    
    36   17   87 1    
    37   18   19 1    
    38   18   37 1    
    39   18   88 1    
    40   19   20 am   BACKBONE|DICT|INTERRES
    41   19   89 1    
    42   20   21 2    
    43   20   22 1    
    44   22   23 1    
    45   22   24 1    
    46   22   90 1    
    47   23   91 1    
    48   23   92 1    
    49   23   93 1    
    50   24   25 am   BACKBONE|DICT|INTERRES
    51   24   94 1    
    52   25   26 2    
    53   25   27 1    
    54   27   28 1    
    55   27   29 1    
    56   27   95 1    
    57   28   96 1    
    58   28   97 1    
    59   28   98 1    
    60   29   30 am   BACKBONE|DICT|INTERRES
    61   29   99 1    
    62   30   31 2    
    63   30   32 1    
    64   32   33 1    
    65   32   34 1    
    66   32  100 1    
    67   33  101 1    
    68   33  102 1    
    69   33  103 1    
    70   34   35 am   BACKBONE|DICT|INTERRES
    71   34  104 1    
    72   35   36 2    
    73   37   38 2    
    74   37   39 am   BACKBONE|DICT|INTERRES
    75   39   40 1    
    76   39  105 1    
    77   40   41 1    
    78   40   42 1    
    79   40  106 1    
    80   41  107 1    
    81   41  108 1    
    82   41  109 1    
    83   42   43 2    
    84   42   44 am   BACKBONE|DICT|INTERRES
    85   44   45 1    
    86   44  110 1    
    87   45   46 1    
    88   45   47 1    
    89   45  111 1    
    90   46  112 1    
    91   46  113 1    
    92   46  114 1    
    93   47   48 2    
    94   47   49 am   BACKBONE|DICT|INTERRES
    95   49   50 1    
    96   49  115 1    
    97   50   51 1    
    98   50   52 1    
    99   50  116 1    
   100   51  117 1    
   101   51  118 1    
   102   51  119 1    
   103   52   53 2    
   104   52   54 am   BACKBONE|DICT|INTERRES
   105   54   55 1    
   106   54  120 1    
   107   55   56 1    
   108   55   57 1    
   109   55  121 1    
   110   56  122 1    
   111   56  123 1    
   112   56  124 1    
   113   57   58 2    
   114   57   59 am   BACKBONE|DICT|INTERRES
   115   59   60 1    
   116   59  125 1    
   117   60   61 1    
   118   60   62 1    
   119   60  126 1    
   120   61  127 1    
   121   61  128 1    
   122   61  129 1    
   123   62   63 2    
   124   62   64 am   BACKBONE|DICT|INTERRES
   125   64   65 1    
   126   64  130 1    
   127   65   66 1    
   128   65   69 1    
   129   65  131 1    
   130   66   67 am   BACKBONE|DICT|INTERRES
   131   66   68 2    
   132   67  132 1    
   133   67  133 1    
   134   69   70 1    
   135   69  134 1    
   136   69  135 1    
   137   70   71 1    
   138   71  136 1    
   139   71  137 1    
@<TRIPOS>SUBSTRUCTURE
     1 UNK         1 GROUP             0       ****    0 ROOT    
