@<TRIPOS>MOLECULE
3R137
137   139    1
SMALL
USER_CHARGES


@<TRIPOS>ATOM
      1 CA         25.3282   -6.0387   -2.0514 C.3       0 UNK        -0.2020 
      2 C          25.6772   -5.0826   -0.9210 C.2       0 UNK         0.4855 
      3 O          24.8742   -4.9010   -0.0059 O.2       0 UNK        -0.5197 
      4 N          26.8723   -4.4785   -0.9723 N.am      1 UNK        -0.4892 
      5 CA         27.3996   -3.5659    0.0553 C.3       1 UNK         0.0835 
      6 C6         28.9178   -3.3129   -0.1175 C.3       12 UNK        -0.0855 
      7 S7         29.8748   -4.8693   -0.1387 S.3       12 UNK        -0.2931 
      8 C8         31.4062   -4.3718   -0.9954 C.3       12 UNK         0.0378 
      9 C9         31.1607   -3.8442   -2.4042 C.ar      12 UNK        -0.0802 
     10 C10        31.6193   -2.5726   -2.7621 C.ar      12 UNK        -0.0944 
     11 C11        31.4136   -2.0800   -4.0535 C.ar      12 UNK        -0.0787 
     12 C12        30.7205   -2.8580   -4.9842 C.ar      12 UNK        -0.0862 
     13 C13        30.2496   -4.1282   -4.6386 C.ar      12 UNK        -0.0733 
     14 C14        30.4892   -4.6236   -3.3526 C.ar      12 UNK        -0.0832 
     15 C15        29.4955   -4.9640   -5.6647 C.3       12 UNK         0.0240 
     16 S16        27.8190   -5.4377   -5.1218 S.3       12 UNK        -0.2522 
     17 C17        27.0391   -3.8398   -4.7173 C.3       12 UNK        -0.0967 
     18 CA         26.4817   -3.0924   -5.9598 C.3       5 UNK         0.0660 
     19 N          25.2030   -2.4452   -5.6686 N.am      5 UNK        -0.4015 
     20 C          24.1705   -2.3343   -6.5149 C.2       4 UNK         0.4946 
     21 O          24.1336   -2.8562   -7.6297 O.2       4 UNK        -0.5353 
     22 CA         22.9678   -1.4950   -6.0381 C.3       4 UNK         0.0277 
     23 CB         21.9141   -2.3967   -5.3746 C.3       4 UNK        -0.1981 
     24 N          23.3474   -0.4285   -5.1059 N.am      4 UNK        -0.4209 
     25 C          24.0689    0.6500   -5.4439 C.2       3 UNK         0.4942 
     26 O          24.3600    0.9305   -6.6055 O.2       3 UNK        -0.5208 
     27 CA         24.5772    1.5591   -4.3059 C.3       3 UNK         0.0250 
     28 CB         23.7306    2.8401   -4.2303 C.3       3 UNK        -0.1990 
     29 N          24.6337    0.9429   -2.9705 N.am      3 UNK        -0.4232 
     30 C          25.3123   -0.1641   -2.6369 C.2       2 UNK         0.4993 
     31 O          25.9420   -0.8502   -3.4482 O.2       2 UNK        -0.5286 
     32 CA         25.2383   -0.6056   -1.1696 C.3       2 UNK         0.0209 
     33 CB         23.7885   -0.9064   -0.7392 C.3       2 UNK        -0.1931 
     34 N          26.0496   -1.8082   -1.0052 N.am      2 UNK        -0.4546 
     35 C          26.6316   -2.2273    0.1235 C.2       1 UNK         0.5154 
     36 O          26.5739   -1.6123    1.1897 O.2       1 UNK        -0.5181 
     37 C          27.4694   -2.0264   -6.4636 C.2       5 UNK         0.5014 
     38 O          28.0540   -2.1827   -7.5360 O.2       5 UNK        -0.5248 
     39 N          27.6118   -0.9375   -5.6937 N.am      6 UNK        -0.4434 
     40 CA         28.4612    0.2201   -5.9763 C.3       6 UNK         0.0363 
     41 CB         28.7875    0.9236   -4.6458 C.3       6 UNK        -0.1936 
     42 C          27.8111    1.1661   -7.0036 C.2       6 UNK         0.5081 
     43 O          27.6468    2.3583   -6.7369 O.2       6 UNK        -0.5248 
     44 N          27.4320    0.6141   -8.1618 N.am      7 UNK        -0.4718 
     45 CA         26.6700    1.2707   -9.2261 C.3       7 UNK         0.0273 
     46 CB         25.9750    0.1841  -10.0675 C.3       7 UNK        -0.1935 
     47 C          27.5291    2.2257  -10.0775 C.2       7 UNK         0.5018 
     48 O          27.6101    2.0603  -11.2964 O.2       7 UNK        -0.5186 
     49 N          28.1727    3.1952   -9.4130 N.am      8 UNK        -0.4240 
     50 CA         29.0347    4.2738   -9.9209 C.3       8 UNK         0.0235 
     51 CB         28.2551    5.2208  -10.8542 C.3       8 UNK        -0.2000 
     52 C          30.3473    3.8088  -10.5787 C.2       8 UNK         0.4941 
     53 O          31.4044    4.3504  -10.2548 O.2       8 UNK        -0.5273 
     54 N          30.2650    2.8311  -11.4883 N.am      9 UNK        -0.4262 
     55 CA         31.4012    2.2338  -12.1930 C.3       9 UNK         0.0264 
     56 CB         30.8899    1.4988  -13.4426 C.3       9 UNK        -0.1955 
     57 C          32.2218    1.2822  -11.3060 C.2       9 UNK         0.5031 
     58 O          33.4236    1.1349  -11.5335 O.2       9 UNK        -0.5390 
     59 N          31.5654    0.6513  -10.3239 N.am      10 UNK        -0.4204 
     60 CA         32.1979   -0.1964   -9.3165 C.3       10 UNK         0.0237 
     61 CB         31.1892   -1.2490   -8.8313 C.3       10 UNK        -0.1985 
     62 C          32.6946    0.6686   -8.1497 C.2       10 UNK         0.4970 
     63 O          31.9525    1.5365   -7.6838 O.2       10 UNK        -0.4914 
     64 N          33.9216    0.3890   -7.6943 N.am      11 UNK        -0.4285 
     65 CA         34.6517    1.1241   -6.6465 C.3       11 UNK         0.1007 
     66 C          34.9923    2.5902   -7.0610 C.2       11 UNK         0.5703 
     67 N          35.2394    3.4896   -6.1168 N.am      11 UNK        -0.7361 
     68 O          35.0970    2.9120   -8.2434 O.2       11 UNK        -0.4986 
     69 C69        34.0043    0.9975   -5.2340 C.3       12 UNK        -0.0947 
     70 S70        33.7303   -0.7329   -4.7249 S.3       12 UNK        -0.2240 
     71 C71        31.9375   -0.7060   -4.4382 C.3       12 UNK         0.0194 
     72 H72        24.9283   -6.9682   -1.6470 H         1 UNK         0.0906 
     73 H73        24.5719   -5.5967   -2.6994 H         1 UNK         0.0906 
     74 H74        26.1990   -6.2872   -2.6573 H         1 UNK         0.0906 
     75 H75        27.5135   -4.7006   -1.7206 H         1 UNK         0.3140 
     76 H76        27.2529   -4.0523    1.0225 H         1 UNK         0.1085 
     77 H77        29.2997   -2.6929    0.6962 H         1 UNK         0.0836 
     78 H78        29.1012   -2.7565   -1.0383 H         1 UNK         0.0836 
     79 H79        32.0725   -5.2335   -1.0539 H         1 UNK         0.0731 
     80 H80        31.9203   -3.6278   -0.3847 H         1 UNK         0.0731 
     81 H81        32.1501   -1.9661   -2.0409 H         1 UNK         0.1312 
     82 H82        30.5481   -2.4746   -5.9800 H         1 UNK         0.1406 
     83 H83        30.1356   -5.6099   -3.0834 H         1 UNK         0.1631 
     84 H84        30.0661   -5.8716   -5.8659 H         1 UNK         0.0717 
     85 H85        29.4194   -4.4377   -6.6172 H         1 UNK         0.0717 
     86 H86        26.2171   -4.0826   -4.0436 H         1 UNK         0.0934 
     87 H87        27.7146   -3.2274   -4.1164 H         1 UNK         0.0934 
     88 H88        26.3297   -3.8125   -6.7670 H         1 UNK         0.0739 
     89 H89        25.1689   -1.9259   -4.7970 H         1 UNK         0.3093 
     90 H90        22.5187   -1.0324   -6.9198 H         1 UNK         0.0818 
     91 H91        22.3001   -2.8788   -4.4755 H         1 UNK         0.0819 
     92 H92        21.0244   -1.8306   -5.0979 H         1 UNK         0.0819 
     93 H93        21.5938   -3.1867   -6.0555 H         1 UNK         0.0819 
     94 H94        23.1184   -0.5651   -4.1325 H         1 UNK         0.3041 
     95 H95        25.5962    1.8456   -4.5718 H         1 UNK         0.0784 
     96 H96        23.6942    3.3425   -5.1983 H         1 UNK         0.0793 
     97 H97        22.7025    2.6277   -3.9345 H         1 UNK         0.0793 
     98 H98        24.1475    3.5513   -3.5169 H         1 UNK         0.0793 
     99 H99        24.1338    1.4321   -2.2416 H         1 UNK         0.3024 
    100 H100       25.6514    0.1977   -0.5552 H         1 UNK         0.1171 
    101 H101       23.7463   -1.2436    0.2968 H         1 UNK         0.0786 
    102 H102       23.1546   -0.0220   -0.8093 H         1 UNK         0.0786 
    103 H103       23.3390   -1.6849   -1.3571 H         1 UNK         0.0786 
    104 H104       26.2035   -2.3284   -1.8584 H         1 UNK         0.2977 
    105 H105       27.0574   -0.8775   -4.8409 H         1 UNK         0.3127 
    106 H106       29.3982   -0.1310   -6.4079 H         1 UNK         0.0770 
    107 H107       27.8993    1.3606   -4.1895 H         1 UNK         0.0814 
    108 H108       29.5080    1.7283   -4.7976 H         1 UNK         0.0814 
    109 H109       29.2183    0.2302   -3.9239 H         1 UNK         0.0814 
    110 H110       27.6190   -0.3770   -8.2807 H         1 UNK         0.2983 
    111 H111       25.8888    1.8775   -8.7625 H         1 UNK         0.0947 
    112 H112       25.3558    0.6282  -10.8480 H         1 UNK         0.0806 
    113 H113       25.3211   -0.4336   -9.4506 H         1 UNK         0.0806 
    114 H114       26.6967   -0.4729  -10.5546 H         1 UNK         0.0806 
    115 H115       28.0604    3.1741   -8.4010 H         1 UNK         0.3000 
    116 H116       29.3210    4.8508   -9.0399 H         1 UNK         0.0850 
    117 H117       28.8763    6.0639  -11.1596 H         1 UNK         0.0810 
    118 H118       27.3757    5.6305  -10.3574 H         1 UNK         0.0810 
    119 H119       27.9225    4.7187  -11.7632 H         1 UNK         0.0810 
    120 H120       29.3372    2.4558  -11.6809 H         1 UNK         0.3040 
    121 H121       32.0654    3.0379  -12.5173 H         1 UNK         0.0766 
    122 H122       30.3717    2.1795  -14.1183 H         1 UNK         0.0812 
    123 H123       30.2010    0.6935  -13.1844 H         1 UNK         0.0812 
    124 H124       31.7162    1.0562  -14.0008 H         1 UNK         0.0812 
    125 H125       30.5934    0.8793  -10.1801 H         1 UNK         0.3205 
    126 H126       33.0454   -0.7202   -9.7646 H         1 UNK         0.0754 
    127 H127       30.8823   -1.9074   -9.6442 H         1 UNK         0.0769 
    128 H128       30.2908   -0.7889   -8.4225 H         1 UNK         0.0769 
    129 H129       31.6239   -1.8772   -8.0531 H         1 UNK         0.0769 
    130 H130       34.4524   -0.3359   -8.1541 H         1 UNK         0.2981 
    131 H131       35.6234    0.6325   -6.5924 H         1 UNK         0.0541 
    132 H132       35.1851    3.2495   -5.1398 H         1 UNK         0.3459 
    133 H133       35.4817    4.4293   -6.3895 H         1 UNK         0.3459 
    134 H134       34.6504    1.4423   -4.4760 H         1 UNK         0.0612 
    135 H135       33.0657    1.5527   -5.1945 H         1 UNK         0.0612 
    136 H136       31.4456   -0.3462   -5.3417 H         1 UNK         0.0624 
    137 H137       31.7089    0.0103   -3.6478 H         1 UNK         0.0624 
@<TRIPOS>BOND
     1    1    2 1    
     2    1   72 1    
     3    1   73 1    
     4    1   74 1    
     5    2    3 2    
     6    2    4 am   BACKBONE|DICT|INTERRES
     7    4    5 1    
     8    4   75 1    
     9    5    6 1    
    10    5   35 1    
    11    5   76 1    
    12    6    7 1    
    13    6   77 1    
    14    6   78 1    
    15    7    8 1    
    16    8    9 1    
    17    8   79 1    
    18    8   80 1    
    19    9   10 ar   
    20    9   14 ar   
    21   10   11 ar   
    22   10   81 1    
    23   11   12 ar   
    24   11   71 1    
    25   12   13 ar   
    26   12   82 1    
    27   13   14 ar   
    28   13   15 1    
    29   14   83 1    
    30   15   16 1    
    31   15   84 1    
    32   15   85 1    
    33   16   17 1    
    34   17   18 1    
    35   17   86 1    
    36   17   87 1    
    37   18   19 1    
    38   18   37 1    
    39   18   88 1    
    40   19   20 am   BACKBONE|DICT|INTERRES
    41   19   89 1    
    42   20   21 2    
    43   20   22 1    
    44   22   23 1    
    45   22   24 1    
    46   22   90 1    
    47   23   91 1    
    48   23   92 1    
    49   23   93 1    
    50   24   25 am   BACKBONE|DICT|INTERRES
    51   24   94 1    
    52   25   26 2    
    53   25   27 1    
    54   27   28 1    
    55   27   29 1    
    56   27   95 1    
    57   28   96 1    
    58   28   97 1    
    59   28   98 1    
    60   29   30 am   BACKBONE|DICT|INTERRES
    61   29   99 1    
    62   30   31 2    
    63   30   32 1    
    64   32   33 1    
    65   32   34 1    
    66   32  100 1    
    67   33  101 1    
    68   33  102 1    
    69   33  103 1    
    70   34   35 am   BACKBONE|DICT|INTERRES
    71   34  104 1    
    72   35   36 2    
    73   37   38 2    
    74   37   39 am   BACKBONE|DICT|INTERRES
    75   39   40 1    
    76   39  105 1    
    77   40   41 1    
    78   40   42 1    
    79   40  106 1    
    80   41  107 1    
    81   41  108 1    
    82   41  109 1    
    83   42   43 2    
    84   42   44 am   BACKBONE|DICT|INTERRES
    85   44   45 1    
    86   44  110 1    
    87   45   46 1    
    88   45   47 1    
    89   45  111 1    
    90   46  112 1    
    91   46  113 1    
    92   46  114 1    
    93   47   48 2    
    94   47   49 am   BACKBONE|DICT|INTERRES
    95   49   50 1    
    96   49  115 1    
    97   50   51 1    
    98   50   52 1    
    99   50  116 1    
   100   51  117 1    
   101   51  118 1    
   102   51  119 1    
   103   52   53 2    
   104   52   54 am   BACKBONE|DICT|INTERRES
   105   54   55 1    
   106   54  120 1    
   107   55   56 1    
   108   55   57 1    
   109   55  121 1    
   110   56  122 1    
   111   56  123 1    
   112   56  124 1    
   113   57   58 2    
   114   57   59 am   BACKBONE|DICT|INTERRES
   115   59   60 1    
   116   59  125 1    
   117   60   61 1    
   118   60   62 1    
   119   60  126 1    
   120   61  127 1    
   121   61  128 1    
   122   61  129 1    
   123   62   63 2    
   124   62   64 am   BACKBONE|DICT|INTERRES
   125   64   65 1    
   126   64  130 1    
   127   65   66 1    
   128   65   69 1    
   129   65  131 1    
   130   66   67 am   BACKBONE|DICT|INTERRES
   131   66   68 2    
   132   67  132 1    
   133   67  133 1    
   134   69   70 1    
   135   69  134 1    
   136   69  135 1    
   137   70   71 1    
   138   71  136 1    
   139   71  137 1    
@<TRIPOS>SUBSTRUCTURE
     1 UNK         1 GROUP             0       ****    0 ROOT    
