@<TRIPOS>MOLECULE
3R137
137   139    1
SMALL
USER_CHARGES


@<TRIPOS>ATOM
      1 CA         26.3564   -0.6617    2.0179 C.3       0 UNK        -0.2020 
      2 C          26.2411   -1.4376    0.7147 C.2       0 UNK         0.4855 
      3 O          25.3103   -2.2290    0.5575 O.2       0 UNK        -0.5197 
      4 N          27.1733   -1.2059   -0.2213 N.am      1 UNK        -0.4892 
      5 CA         27.2992   -1.8242   -1.5534 C.3       1 UNK         0.0835 
      6 C6         27.3930   -3.3788   -1.5480 C.3       12 UNK        -0.0855 
      7 S7         28.6291   -4.0300   -0.3666 S.3       12 UNK        -0.2931 
      8 C8         29.8949   -4.7674   -1.4590 C.3       12 UNK         0.0378 
      9 C9         30.6619   -3.7703   -2.3270 C.ar      12 UNK        -0.0802 
     10 C10        31.1920   -4.2025   -3.5463 C.ar      12 UNK        -0.0944 
     11 C11        31.8899   -3.3201   -4.3763 C.ar      12 UNK        -0.0787 
     12 C12        32.0568   -1.9893   -3.9813 C.ar      12 UNK        -0.0862 
     13 C13        31.5436   -1.5456   -2.7595 C.ar      12 UNK        -0.0733 
     14 C14        30.8666   -2.4434   -1.9309 C.ar      12 UNK        -0.0832 
     15 C15        31.7089   -0.0993   -2.3220 C.3       12 UNK         0.0240 
     16 S16        30.2638    0.9037   -2.7935 S.3       12 UNK        -0.2522 
     17 C17        30.7011    1.3990   -4.4976 C.3       12 UNK        -0.0967 
     18 CA         29.5550    1.2509   -5.5268 C.3       5 UNK         0.0660 
     19 N          29.0097   -0.1082   -5.5947 N.am      5 UNK        -0.4015 
     20 C          28.2704   -0.5680   -6.6132 C.2       4 UNK         0.4946 
     21 O          27.9922    0.1135   -7.6024 O.2       4 UNK        -0.5353 
     22 CA         27.7985   -2.0255   -6.5587 C.3       4 UNK         0.0277 
     23 CB         28.6237   -2.9134   -5.6113 C.3       4 UNK        -0.1981 
     24 N          26.3980   -2.0763   -6.1528 N.am      4 UNK        -0.4209 
     25 C          25.4155   -2.6473   -6.8630 C.2       3 UNK         0.4942 
     26 O          25.5739   -3.1061   -7.9953 O.2       3 UNK        -0.5208 
     27 CA         24.0273   -2.7677   -6.2052 C.3       3 UNK         0.0250 
     28 CB         23.4831   -4.2032   -6.3257 C.3       3 UNK        -0.1990 
     29 N          24.0389   -2.3979   -4.7876 N.am      3 UNK        -0.4232 
     30 C          23.6098   -1.2302   -4.2957 C.2       2 UNK         0.4993 
     31 O          23.1627   -0.3120   -4.9815 O.2       2 UNK        -0.5286 
     32 CA         23.7021   -1.0565   -2.7716 C.3       2 UNK         0.0209 
     33 CB         22.5042   -1.7367   -2.0884 C.3       2 UNK        -0.1931 
     34 N          24.9417   -1.5418   -2.1519 N.am      2 UNK        -0.4546 
     35 C          26.2112   -1.3207   -2.5247 C.2       1 UNK         0.5154 
     36 O          26.5435   -0.7341   -3.5583 O.2       1 UNK        -0.5181 
     37 C          28.4665    2.3269   -5.3510 C.2       5 UNK         0.5014 
     38 O          28.5990    3.4048   -5.9315 O.2       5 UNK        -0.5248 
     39 N          27.3883    2.0154   -4.6154 N.am      6 UNK        -0.4434 
     40 CA         26.2483    2.9209   -4.4299 C.3       6 UNK         0.0363 
     41 CB         25.3924    2.4307   -3.2577 C.3       6 UNK        -0.1936 
     42 C          25.3909    3.0702   -5.7005 C.2       6 UNK         0.5081 
     43 O          24.7370    4.0989   -5.8707 O.2       6 UNK        -0.5248 
     44 N          25.4396    2.0641   -6.5846 N.am      7 UNK        -0.4718 
     45 CA         24.8346    2.0869   -7.9186 C.3       7 UNK         0.0273 
     46 CB         24.5045    0.6438   -8.3355 C.3       7 UNK        -0.1935 
     47 C          25.7393    2.7599   -8.9696 C.2       7 UNK         0.5018 
     48 O          25.3284    2.8667  -10.1254 O.2       7 UNK        -0.5186 
     49 N          26.9528    3.1706   -8.5656 N.am      8 UNK        -0.4240 
     50 CA         28.0276    3.7531   -9.3773 C.3       8 UNK         0.0235 
     51 CB         27.5911    5.0915  -10.0111 C.3       8 UNK        -0.2000 
     52 C          28.6359    2.7764  -10.4041 C.2       8 UNK         0.4941 
     53 O          29.3033    3.2252  -11.3377 O.2       8 UNK        -0.5273 
     54 N          28.4287    1.4658  -10.2096 N.am      9 UNK        -0.4262 
     55 CA         29.0589    0.4068  -10.9982 C.3       9 UNK         0.0264 
     56 CB         28.1785   -0.8548  -10.9756 C.3       9 UNK        -0.1955 
     57 C          30.4686    0.1157  -10.4640 C.2       9 UNK         0.5031 
     58 O          31.4217    0.0967  -11.2445 O.2       9 UNK        -0.5390 
     59 N          30.5595   -0.0593   -9.1360 N.am      10 UNK        -0.4204 
     60 CA         31.7691   -0.3030   -8.3393 C.3       10 UNK         0.0237 
     61 CB         32.6387    0.9740   -8.3008 C.3       10 UNK        -0.1985 
     62 C          32.5553   -1.5652   -8.7605 C.2       10 UNK         0.4970 
     63 O          32.0072   -2.4465   -9.4261 O.2       10 UNK        -0.4914 
     64 N          33.8083   -1.6559   -8.3037 N.am      11 UNK        -0.4285 
     65 CA         34.7291   -2.7824   -8.5267 C.3       11 UNK         0.1007 
     66 C          36.2291   -2.3702   -8.4595 C.2       11 UNK         0.5703 
     67 N          36.5684   -1.0872   -8.5346 N.am      11 UNK        -0.7361 
     68 O          37.1090   -3.2225   -8.3621 O.2       11 UNK        -0.4986 
     69 C69        34.3767   -4.0359   -7.6705 C.3       12 UNK        -0.0947 
     70 S70        34.2045   -3.6988   -5.8822 S.3       12 UNK        -0.2240 
     71 C71        32.3945   -3.7875   -5.7325 C.3       12 UNK         0.0194 
     72 H72        26.4601   -1.3513    2.8552 H         1 UNK         0.0906 
     73 H73        27.2167    0.0073    2.0216 H         1 UNK         0.0906 
     74 H74        25.4601   -0.0630    2.1784 H         1 UNK         0.0906 
     75 H75        27.8865   -0.5192   -0.0175 H         1 UNK         0.3140 
     76 H76        28.2415   -1.4486   -1.9533 H         1 UNK         0.1085 
     77 H77        27.6265   -3.7462   -2.5490 H         1 UNK         0.0836 
     78 H78        26.4315   -3.8243   -1.2873 H         1 UNK         0.0836 
     79 H79        29.4109   -5.5179   -2.0863 H         1 UNK         0.0731 
     80 H80        30.6144   -5.3029   -0.8385 H         1 UNK         0.0731 
     81 H81        31.0461   -5.2278   -3.8585 H         1 UNK         0.1312 
     82 H82        32.5862   -1.3039   -4.6282 H         1 UNK         0.1406 
     83 H83        30.4858   -2.0960   -0.9806 H         1 UNK         0.1631 
     84 H84        32.6217    0.3316   -2.7364 H         1 UNK         0.0717 
     85 H85        31.8235   -0.0558   -1.2378 H         1 UNK         0.0717 
     86 H86        31.0613    2.4296   -4.4726 H         1 UNK         0.0934 
     87 H87        31.5538    0.8119   -4.8380 H         1 UNK         0.0934 
     88 H88        29.9995    1.4545   -6.5034 H         1 UNK         0.0739 
     89 H89        29.1916   -0.7057   -4.8011 H         1 UNK         0.3093 
     90 H90        27.9222   -2.4204   -7.5693 H         1 UNK         0.0818 
     91 H91        29.6713   -2.9003   -5.9026 H         1 UNK         0.0819 
     92 H92        28.5568   -2.5993   -4.5696 H         1 UNK         0.0819 
     93 H93        28.2945   -3.9514   -5.6617 H         1 UNK         0.0819 
     94 H94        26.1816   -1.6576   -5.2531 H         1 UNK         0.3041 
     95 H95        23.3556   -2.1092   -6.7592 H         1 UNK         0.0784 
     96 H96        23.3879   -4.5029   -7.3704 H         1 UNK         0.0793 
     97 H97        24.1377   -4.9260   -5.8373 H         1 UNK         0.0793 
     98 H98        22.4931   -4.2902   -5.8775 H         1 UNK         0.0793 
     99 H99        24.3984   -3.0859   -4.1412 H         1 UNK         0.3024 
    100 H100       23.6279    0.0089   -2.5557 H         1 UNK         0.1171 
    101 H101       22.4818   -1.5197   -1.0201 H         1 UNK         0.0786 
    102 H102       21.5607   -1.3845   -2.5081 H         1 UNK         0.0786 
    103 H103       22.5312   -2.8205   -2.2083 H         1 UNK         0.0786 
    104 H104       24.8342   -1.9823   -1.2403 H         1 UNK         0.2977 
    105 H105       27.3229    1.0979   -4.1856 H         1 UNK         0.3127 
    106 H106       26.6363    3.9096   -4.1749 H         1 UNK         0.0770 
    107 H107       24.9369    1.4742   -3.4977 H         1 UNK         0.0814 
    108 H108       24.5863    3.1325   -3.0397 H         1 UNK         0.0814 
    109 H109       25.9814    2.3113   -2.3482 H         1 UNK         0.0814 
    110 H110       26.0095    1.2596   -6.3650 H         1 UNK         0.2983 
    111 H111       23.9019    2.6540   -7.8809 H         1 UNK         0.0947 
    112 H112       24.0013    0.6198   -9.3029 H         1 UNK         0.0806 
    113 H113       23.8380    0.1691   -7.6162 H         1 UNK         0.0806 
    114 H114       25.4022    0.0308   -8.4221 H         1 UNK         0.0806 
    115 H115       27.1866    3.0409   -7.5887 H         1 UNK         0.3000 
    116 H116       28.8337    3.9758   -8.6765 H         1 UNK         0.0850 
    117 H117       28.4395    5.6040  -10.4663 H         1 UNK         0.0810 
    118 H118       27.1711    5.7657   -9.2646 H         1 UNK         0.0810 
    119 H119       26.8448    4.9473  -10.7927 H         1 UNK         0.0810 
    120 H120       27.9119    1.1743   -9.3868 H         1 UNK         0.3040 
    121 H121       29.1488    0.7343  -12.0365 H         1 UNK         0.0766 
    122 H122       27.1968   -0.6570  -11.4064 H         1 UNK         0.0812 
    123 H123       28.0259   -1.2353   -9.9653 H         1 UNK         0.0812 
    124 H124       28.6335   -1.6559  -11.5596 H         1 UNK         0.0812 
    125 H125       29.6882   -0.0298   -8.6166 H         1 UNK         0.3205 
    126 H126       31.4227   -0.4995   -7.3241 H         1 UNK         0.0754 
    127 H127       33.4144    0.9144   -7.5370 H         1 UNK         0.0769 
    128 H128       32.0379    1.8532   -8.0667 H         1 UNK         0.0769 
    129 H129       33.1278    1.1568   -9.2586 H         1 UNK         0.0769 
    130 H130       34.1759   -0.9151   -7.7255 H         1 UNK         0.2981 
    131 H131       34.6061   -3.0786   -9.5700 H         1 UNK         0.0541 
    132 H132       35.8844   -0.3689   -8.7044 H         1 UNK         0.3459 
    133 H133       37.5459   -0.8438   -8.4948 H         1 UNK         0.3459 
    134 H134       33.4480   -4.4720   -8.0408 H         1 UNK         0.0612 
    135 H135       35.1223   -4.8218   -7.8010 H         1 UNK         0.0612 
    136 H136       32.0765   -4.8117   -5.9335 H         1 UNK         0.0624 
    137 H137       31.9374   -3.1690   -6.5030 H         1 UNK         0.0624 
@<TRIPOS>BOND
     1    1    2 1    
     2    1   72 1    
     3    1   73 1    
     4    1   74 1    
     5    2    3 2    
     6    2    4 am   BACKBONE|DICT|INTERRES
     7    4    5 1    
     8    4   75 1    
     9    5    6 1    
    10    5   35 1    
    11    5   76 1    
    12    6    7 1    
    13    6   77 1    
    14    6   78 1    
    15    7    8 1    
    16    8    9 1    
    17    8   79 1    
    18    8   80 1    
    19    9   10 ar   
    20    9   14 ar   
    21   10   11 ar   
    22   10   81 1    
    23   11   12 ar   
    24   11   71 1    
    25   12   13 ar   
    26   12   82 1    
    27   13   14 ar   
    28   13   15 1    
    29   14   83 1    
    30   15   16 1    
    31   15   84 1    
    32   15   85 1    
    33   16   17 1    
    34   17   18 1    
    35   17   86 1    
    36   17   87 1    
    37   18   19 1    
    38   18   37 1    
    39   18   88 1    
    40   19   20 am   BACKBONE|DICT|INTERRES
    41   19   89 1    
    42   20   21 2    
    43   20   22 1    
    44   22   23 1    
    45   22   24 1    
    46   22   90 1    
    47   23   91 1    
    48   23   92 1    
    49   23   93 1    
    50   24   25 am   BACKBONE|DICT|INTERRES
    51   24   94 1    
    52   25   26 2    
    53   25   27 1    
    54   27   28 1    
    55   27   29 1    
    56   27   95 1    
    57   28   96 1    
    58   28   97 1    
    59   28   98 1    
    60   29   30 am   BACKBONE|DICT|INTERRES
    61   29   99 1    
    62   30   31 2    
    63   30   32 1    
    64   32   33 1    
    65   32   34 1    
    66   32  100 1    
    67   33  101 1    
    68   33  102 1    
    69   33  103 1    
    70   34   35 am   BACKBONE|DICT|INTERRES
    71   34  104 1    
    72   35   36 2    
    73   37   38 2    
    74   37   39 am   BACKBONE|DICT|INTERRES
    75   39   40 1    
    76   39  105 1    
    77   40   41 1    
    78   40   42 1    
    79   40  106 1    
    80   41  107 1    
    81   41  108 1    
    82   41  109 1    
    83   42   43 2    
    84   42   44 am   BACKBONE|DICT|INTERRES
    85   44   45 1    
    86   44  110 1    
    87   45   46 1    
    88   45   47 1    
    89   45  111 1    
    90   46  112 1    
    91   46  113 1    
    92   46  114 1    
    93   47   48 2    
    94   47   49 am   BACKBONE|DICT|INTERRES
    95   49   50 1    
    96   49  115 1    
    97   50   51 1    
    98   50   52 1    
    99   50  116 1    
   100   51  117 1    
   101   51  118 1    
   102   51  119 1    
   103   52   53 2    
   104   52   54 am   BACKBONE|DICT|INTERRES
   105   54   55 1    
   106   54  120 1    
   107   55   56 1    
   108   55   57 1    
   109   55  121 1    
   110   56  122 1    
   111   56  123 1    
   112   56  124 1    
   113   57   58 2    
   114   57   59 am   BACKBONE|DICT|INTERRES
   115   59   60 1    
   116   59  125 1    
   117   60   61 1    
   118   60   62 1    
   119   60  126 1    
   120   61  127 1    
   121   61  128 1    
   122   61  129 1    
   123   62   63 2    
   124   62   64 am   BACKBONE|DICT|INTERRES
   125   64   65 1    
   126   64  130 1    
   127   65   66 1    
   128   65   69 1    
   129   65  131 1    
   130   66   67 am   BACKBONE|DICT|INTERRES
   131   66   68 2    
   132   67  132 1    
   133   67  133 1    
   134   69   70 1    
   135   69  134 1    
   136   69  135 1    
   137   70   71 1    
   138   71  136 1    
   139   71  137 1    
@<TRIPOS>SUBSTRUCTURE
     1 UNK         1 GROUP             0       ****    0 ROOT    
