@<TRIPOS>MOLECULE
3R137
137   139    1
SMALL
USER_CHARGES


@<TRIPOS>ATOM
      1 CA         27.9318   -5.8662    0.6185 C.3       0 UNK        -0.2020 
      2 C          27.5418   -4.4010    0.7422 C.2       0 UNK         0.4855 
      3 O          26.6996   -4.0593    1.5726 O.2       0 UNK        -0.5197 
      4 N          28.1503   -3.5340   -0.0776 N.am      1 UNK        -0.4892 
      5 CA         27.8915   -2.0876   -0.1142 C.3       1 UNK         0.0835 
      6 C6         29.0167   -1.3249   -0.8546 C.3       12 UNK        -0.0855 
      7 S7         30.6157   -1.3830    0.0388 S.3       12 UNK        -0.2931 
      8 C8         31.5164   -2.7886   -0.7077 C.3       12 UNK         0.0378 
      9 C9         31.6507   -2.6520   -2.2163 C.ar      12 UNK        -0.0802 
     10 C10        32.5120   -1.6971   -2.7663 C.ar      12 UNK        -0.0944 
     11 C11        32.5574   -1.4964   -4.1494 C.ar      12 UNK        -0.0787 
     12 C12        31.7300   -2.2584   -4.9792 C.ar      12 UNK        -0.0862 
     13 C13        30.8851   -3.2329   -4.4418 C.ar      12 UNK        -0.0733 
     14 C14        30.8700   -3.4450   -3.0620 C.ar      12 UNK        -0.0832 
     15 C15        29.9173   -3.9861   -5.3441 C.3       12 UNK         0.0240 
     16 S16        28.1766   -3.5951   -4.9541 S.3       12 UNK        -0.2522 
     17 C17        28.1596   -1.7693   -5.0177 C.3       12 UNK        -0.0967 
     18 CA         27.4881   -1.2129   -6.2922 C.3       5 UNK         0.0660 
     19 N          26.0909   -1.6284   -6.4264 N.am      5 UNK        -0.4015 
     20 C          25.3543   -1.4791   -7.5361 C.2       4 UNK         0.4946 
     21 O          25.7914   -1.0205   -8.5912 O.2       4 UNK        -0.5353 
     22 CA         23.8681   -1.8659   -7.4403 C.3       4 UNK         0.0277 
     23 CB         23.6862   -3.3730   -7.6805 C.3       4 UNK        -0.1981 
     24 N          23.2689   -1.4963   -6.1548 N.am      4 UNK        -0.4209 
     25 C          23.1173   -0.2351   -5.7230 C.2       3 UNK         0.4942 
     26 O          23.3914    0.7543   -6.3997 O.2       3 UNK        -0.5208 
     27 CA         22.6340   -0.0443   -4.2736 C.3       3 UNK         0.0250 
     28 CB         21.0997    0.0249   -4.2218 C.3       3 UNK        -0.1990 
     29 N          23.1128   -1.0855   -3.3562 N.am      3 UNK        -0.4232 
     30 C          24.4039   -1.3415   -3.0999 C.2       2 UNK         0.4993 
     31 O          25.3347   -0.7064   -3.6008 O.2       2 UNK        -0.5286 
     32 CA         24.6818   -2.5698   -2.2159 C.3       2 UNK         0.0209 
     33 CB         24.4796   -3.8615   -3.0283 C.3       2 UNK        -0.1931 
     34 N          26.0286   -2.6002   -1.6398 N.am      2 UNK        -0.4546 
     35 C          26.5003   -1.7609   -0.7061 C.2       1 UNK         0.5154 
     36 O          25.8676   -0.7982   -0.2687 O.2       1 UNK        -0.5181 
     37 C          27.6121    0.3202   -6.3298 C.2       5 UNK         0.5014 
     38 O          28.4933    0.8373   -7.0170 O.2       5 UNK        -0.5248 
     39 N          26.7127    1.0171   -5.6190 N.am      6 UNK        -0.4434 
     40 CA         26.6135    2.4791   -5.6183 C.3       6 UNK         0.0363 
     41 CB         25.5892    2.9299   -4.5653 C.3       6 UNK        -0.1936 
     42 C          26.2703    3.0569   -7.0038 C.2       6 UNK         0.5081 
     43 O          26.8303    4.0860   -7.3809 O.2       6 UNK        -0.5248 
     44 N          25.3837    2.3754   -7.7439 N.am      7 UNK        -0.4718 
     45 CA         25.0306    2.6987   -9.1280 C.3       7 UNK         0.0273 
     46 CB         23.7837    1.9027   -9.5450 C.3       7 UNK        -0.1935 
     47 C          26.1882    2.4568  -10.1123 C.2       7 UNK         0.5018 
     48 O          26.3953    3.2812  -11.0038 O.2       7 UNK        -0.5186 
     49 N          26.9221    1.3468   -9.9353 N.am      8 UNK        -0.4240 
     50 CA         28.1183    1.0104  -10.7150 C.3       8 UNK         0.0235 
     51 CB         28.5436   -0.4381  -10.4227 C.3       8 UNK        -0.2000 
     52 C          29.2855    1.9796  -10.4604 C.2       8 UNK         0.4941 
     53 O          29.9599    2.3720  -11.4132 O.2       8 UNK        -0.5273 
     54 N          29.4858    2.3487   -9.1858 N.am      9 UNK        -0.4262 
     55 CA         30.4694    3.3110   -8.6743 C.3       9 UNK         0.0264 
     56 CB         30.1557    4.7342   -9.1832 C.3       9 UNK        -0.1955 
     57 C          31.9380    2.9006   -8.9107 C.2       9 UNK         0.5031 
     58 O          32.8095    3.7686   -8.9969 O.2       9 UNK        -0.5390 
     59 N          32.1961    1.5906   -8.9851 N.am      10 UNK        -0.4204 
     60 CA         33.5163    0.9856   -9.1258 C.3       10 UNK         0.0237 
     61 CB         33.9157    0.9206  -10.6107 C.3       10 UNK        -0.1985 
     62 C          33.4565   -0.4121   -8.5066 C.2       10 UNK         0.4970 
     63 O          32.4171   -1.0696   -8.6064 O.2       10 UNK        -0.4914 
     64 N          34.5551   -0.8318   -7.8684 N.am      11 UNK        -0.4285 
     65 CA         34.6613   -2.1315   -7.1830 C.3       11 UNK         0.1007 
     66 C          35.0873   -3.3062   -8.1127 C.2       11 UNK         0.5703 
     67 N          35.4031   -3.0740   -9.3816 N.am      11 UNK        -0.7361 
     68 O          35.1199   -4.4548   -7.6775 O.2       11 UNK        -0.4986 
     69 C69        35.5552   -2.0613   -5.9137 C.3       12 UNK        -0.0947 
     70 S70        35.2106   -0.7527   -4.6754 S.3       12 UNK        -0.2240 
     71 C71        33.4222   -0.3888   -4.7343 C.3       12 UNK         0.0194 
     72 H72        28.6886   -6.0258   -0.1494 H         1 UNK         0.0906 
     73 H73        28.3294   -6.2293    1.5660 H         1 UNK         0.0906 
     74 H74        27.0586   -6.4662    0.3635 H         1 UNK         0.0906 
     75 H75        28.8430   -3.8710   -0.7274 H         1 UNK         0.3140 
     76 H76        27.8724   -1.7311    0.9185 H         1 UNK         0.1085 
     77 H77        28.7525   -0.2693   -0.9459 H         1 UNK         0.0836 
     78 H78        29.1267   -1.6839   -1.8777 H         1 UNK         0.0836 
     79 H79        32.5114   -2.8426   -0.2633 H         1 UNK         0.0731 
     80 H80        31.0187   -3.7217   -0.4417 H         1 UNK         0.0731 
     81 H81        33.1148   -1.0795   -2.1143 H         1 UNK         0.1312 
     82 H82        31.7003   -2.0609   -6.0415 H         1 UNK         0.1406 
     83 H83        30.1967   -4.1830   -2.6492 H         1 UNK         0.1631 
     84 H84        30.0768   -5.0591   -5.2305 H         1 UNK         0.0717 
     85 H85        30.1026   -3.7551   -6.3944 H         1 UNK         0.0717 
     86 H86        27.6574   -1.4146   -4.1185 H         1 UNK         0.0934 
     87 H87        29.1717   -1.3756   -4.9401 H         1 UNK         0.0934 
     88 H88        28.0323   -1.6031   -7.1551 H         1 UNK         0.0739 
     89 H89        25.6498   -1.9672   -5.5844 H         1 UNK         0.3093 
     90 H90        23.3349   -1.3266   -8.2262 H         1 UNK         0.0818 
     91 H91        24.1097   -3.6669   -8.6421 H         1 UNK         0.0819 
     92 H92        24.1786   -3.9704   -6.9119 H         1 UNK         0.0819 
     93 H93        22.6314   -3.6481   -7.6963 H         1 UNK         0.0819 
     94 H94        22.9962   -2.2495   -5.5410 H         1 UNK         0.3041 
     95 H95        23.0301    0.9098   -3.9205 H         1 UNK         0.0784 
     96 H96        20.7230    0.8084   -4.8812 H         1 UNK         0.0793 
     97 H97        20.6398   -0.9133   -4.5349 H         1 UNK         0.0793 
     98 H98        20.7461    0.2543   -3.2163 H         1 UNK         0.0793 
     99 H99        22.4051   -1.6553   -2.9143 H         1 UNK         0.3024 
    100 H100       23.9698   -2.5554   -1.3874 H         1 UNK         0.1171 
    101 H101       23.4699   -3.9244   -3.4358 H         1 UNK         0.0786 
    102 H102       25.1750   -3.9247   -3.8665 H         1 UNK         0.0786 
    103 H103       24.6256   -4.7460   -2.4075 H         1 UNK         0.0786 
    104 H104       26.6300   -3.3514   -1.9428 H         1 UNK         0.2977 
    105 H105       26.0564    0.5062   -5.0348 H         1 UNK         0.3127 
    106 H106       27.5910    2.8721   -5.3307 H         1 UNK         0.0770 
    107 H107       24.5814    2.5981   -4.8136 H         1 UNK         0.0814 
    108 H108       25.5629    4.0178   -4.4916 H         1 UNK         0.0814 
    109 H109       25.8367    2.5424   -3.5768 H         1 UNK         0.0814 
    110 H110       24.8960    1.5917   -7.3183 H         1 UNK         0.2983 
    111 H111       24.7823    3.7616   -9.1681 H         1 UNK         0.0947 
    112 H112       23.9598    0.8274   -9.5098 H         1 UNK         0.0806 
    113 H113       23.4843    2.1517  -10.5639 H         1 UNK         0.0806 
    114 H114       22.9372    2.1233   -8.8945 H         1 UNK         0.0806 
    115 H115       26.6326    0.6782   -9.2272 H         1 UNK         0.3000 
    116 H116       27.8557    1.0798  -11.7728 H         1 UNK         0.0850 
    117 H117       29.4206   -0.7141  -11.0098 H         1 UNK         0.0810 
    118 H118       27.7498   -1.1418  -10.6744 H         1 UNK         0.0810 
    119 H119       28.7961   -0.5833   -9.3721 H         1 UNK         0.0810 
    120 H120       28.9207    1.8948   -8.4687 H         1 UNK         0.3040 
    121 H121       30.3351    3.3167   -7.5916 H         1 UNK         0.0766 
    122 H122       30.3278    4.8270  -10.2559 H         1 UNK         0.0812 
    123 H123       30.7824    5.4763   -8.6873 H         1 UNK         0.0812 
    124 H124       29.1181    5.0041   -8.9849 H         1 UNK         0.0812 
    125 H125       31.4393    0.9274   -8.8702 H         1 UNK         0.3205 
    126 H126       34.2470    1.5832   -8.5758 H         1 UNK         0.0754 
    127 H127       34.8989    0.4650  -10.7340 H         1 UNK         0.0769 
    128 H128       33.9631    1.9165  -11.0518 H         1 UNK         0.0769 
    129 H129       33.2043    0.3326  -11.1926 H         1 UNK         0.0769 
    130 H130       35.3746   -0.2430   -7.8358 H         1 UNK         0.2981 
    131 H131       33.6700   -2.4202   -6.8470 H         1 UNK         0.0541 
    132 H132       35.3747   -2.1392   -9.7543 H         1 UNK         0.3459 
    133 H133       35.6714   -3.8458   -9.9718 H         1 UNK         0.3459 
    134 H134       36.5997   -1.9468   -6.2089 H         1 UNK         0.0612 
    135 H135       35.5039   -3.0115   -5.3787 H         1 UNK         0.0612 
    136 H136       33.1072   -0.1384   -5.7441 H         1 UNK         0.0624 
    137 H137       33.2516    0.5180   -4.1524 H         1 UNK         0.0624 
@<TRIPOS>BOND
     1    1    2 1    
     2    1   72 1    
     3    1   73 1    
     4    1   74 1    
     5    2    3 2    
     6    2    4 am   BACKBONE|DICT|INTERRES
     7    4    5 1    
     8    4   75 1    
     9    5    6 1    
    10    5   35 1    
    11    5   76 1    
    12    6    7 1    
    13    6   77 1    
    14    6   78 1    
    15    7    8 1    
    16    8    9 1    
    17    8   79 1    
    18    8   80 1    
    19    9   10 ar   
    20    9   14 ar   
    21   10   11 ar   
    22   10   81 1    
    23   11   12 ar   
    24   11   71 1    
    25   12   13 ar   
    26   12   82 1    
    27   13   14 ar   
    28   13   15 1    
    29   14   83 1    
    30   15   16 1    
    31   15   84 1    
    32   15   85 1    
    33   16   17 1    
    34   17   18 1    
    35   17   86 1    
    36   17   87 1    
    37   18   19 1    
    38   18   37 1    
    39   18   88 1    
    40   19   20 am   BACKBONE|DICT|INTERRES
    41   19   89 1    
    42   20   21 2    
    43   20   22 1    
    44   22   23 1    
    45   22   24 1    
    46   22   90 1    
    47   23   91 1    
    48   23   92 1    
    49   23   93 1    
    50   24   25 am   BACKBONE|DICT|INTERRES
    51   24   94 1    
    52   25   26 2    
    53   25   27 1    
    54   27   28 1    
    55   27   29 1    
    56   27   95 1    
    57   28   96 1    
    58   28   97 1    
    59   28   98 1    
    60   29   30 am   BACKBONE|DICT|INTERRES
    61   29   99 1    
    62   30   31 2    
    63   30   32 1    
    64   32   33 1    
    65   32   34 1    
    66   32  100 1    
    67   33  101 1    
    68   33  102 1    
    69   33  103 1    
    70   34   35 am   BACKBONE|DICT|INTERRES
    71   34  104 1    
    72   35   36 2    
    73   37   38 2    
    74   37   39 am   BACKBONE|DICT|INTERRES
    75   39   40 1    
    76   39  105 1    
    77   40   41 1    
    78   40   42 1    
    79   40  106 1    
    80   41  107 1    
    81   41  108 1    
    82   41  109 1    
    83   42   43 2    
    84   42   44 am   BACKBONE|DICT|INTERRES
    85   44   45 1    
    86   44  110 1    
    87   45   46 1    
    88   45   47 1    
    89   45  111 1    
    90   46  112 1    
    91   46  113 1    
    92   46  114 1    
    93   47   48 2    
    94   47   49 am   BACKBONE|DICT|INTERRES
    95   49   50 1    
    96   49  115 1    
    97   50   51 1    
    98   50   52 1    
    99   50  116 1    
   100   51  117 1    
   101   51  118 1    
   102   51  119 1    
   103   52   53 2    
   104   52   54 am   BACKBONE|DICT|INTERRES
   105   54   55 1    
   106   54  120 1    
   107   55   56 1    
   108   55   57 1    
   109   55  121 1    
   110   56  122 1    
   111   56  123 1    
   112   56  124 1    
   113   57   58 2    
   114   57   59 am   BACKBONE|DICT|INTERRES
   115   59   60 1    
   116   59  125 1    
   117   60   61 1    
   118   60   62 1    
   119   60  126 1    
   120   61  127 1    
   121   61  128 1    
   122   61  129 1    
   123   62   63 2    
   124   62   64 am   BACKBONE|DICT|INTERRES
   125   64   65 1    
   126   64  130 1    
   127   65   66 1    
   128   65   69 1    
   129   65  131 1    
   130   66   67 am   BACKBONE|DICT|INTERRES
   131   66   68 2    
   132   67  132 1    
   133   67  133 1    
   134   69   70 1    
   135   69  134 1    
   136   69  135 1    
   137   70   71 1    
   138   71  136 1    
   139   71  137 1    
@<TRIPOS>SUBSTRUCTURE
     1 UNK         1 GROUP             0       ****    0 ROOT    
