@<TRIPOS>MOLECULE
3R137
137   139    1
SMALL
USER_CHARGES


@<TRIPOS>ATOM
      1 CA         26.1957   -6.3719    0.3631 C.3       0 UNK        -0.2020 
      2 C          26.4730   -5.5859   -0.9098 C.2       0 UNK         0.4855 
      3 O          25.9959   -5.9731   -1.9764 O.2       0 UNK        -0.5197 
      4 N          27.2373   -4.4893   -0.7950 N.am      1 UNK        -0.4892 
      5 CA         27.6401   -3.5762   -1.8781 C.3       1 UNK         0.0835 
      6 C6         28.6084   -4.2257   -2.9104 C.3       12 UNK        -0.0855 
      7 S7         30.1279   -4.8781   -2.1234 S.3       12 UNK        -0.2931 
      8 C8         31.4555   -4.2832   -3.2349 C.3       12 UNK         0.0378 
      9 C9         31.8937   -2.8263   -3.0456 C.ar      12 UNK        -0.0802 
     10 C10        33.1424   -2.4272   -3.5374 C.ar      12 UNK        -0.0944 
     11 C11        33.5806   -1.1053   -3.3982 C.ar      12 UNK        -0.0787 
     12 C12        32.7519   -0.1688   -2.7722 C.ar      12 UNK        -0.0862 
     13 C13        31.5061   -0.5504   -2.2689 C.ar      12 UNK        -0.0733 
     14 C14        31.0911   -1.8751   -2.4059 C.ar      12 UNK        -0.0832 
     15 C15        30.6269    0.4520   -1.5338 C.3       12 UNK         0.0240 
     16 S16        29.6842    1.5181   -2.6674 S.3       12 UNK        -0.2522 
     17 C17        28.3565    0.4190   -3.2798 C.3       12 UNK        -0.0967 
     18 CA         28.0968    0.6129   -4.7942 C.3       5 UNK         0.0660 
     19 N          27.2964   -0.4685   -5.3732 N.am      5 UNK        -0.4015 
     20 C          27.1978   -0.6931   -6.6911 C.2       4 UNK         0.4946 
     21 O          27.8674   -0.1007   -7.5380 O.2       4 UNK        -0.5353 
     22 CA         26.1582   -1.7229   -7.1553 C.3       4 UNK         0.0277 
     23 CB         26.7558   -3.1381   -7.1814 C.3       4 UNK        -0.1981 
     24 N          24.9434   -1.6929   -6.3372 N.am      4 UNK        -0.4209 
     25 C          24.0651   -0.6786   -6.3597 C.2       3 UNK         0.4942 
     26 O          24.1852    0.3078   -7.0832 O.2       3 UNK        -0.5208 
     27 CA         22.8669   -0.7460   -5.4007 C.3       3 UNK         0.0250 
     28 CB         21.6838   -1.4608   -6.0724 C.3       3 UNK        -0.1990 
     29 N          23.1607   -1.3886   -4.1202 N.am      3 UNK        -0.4232 
     30 C          24.0806   -0.9886   -3.2310 C.2       2 UNK         0.4993 
     31 O          24.8265   -0.0204   -3.4016 O.2       2 UNK        -0.5286 
     32 CA         24.2005   -1.8215   -1.9372 C.3       2 UNK         0.0209 
     33 CB         23.1991   -2.9966   -1.8490 C.3       2 UNK        -0.1931 
     34 N          25.5502   -2.3355   -1.6711 N.am      2 UNK        -0.4546 
     35 C          26.4130   -2.9020   -2.5310 C.2       1 UNK         0.5154 
     36 O          26.2663   -2.9248   -3.7549 O.2       1 UNK        -0.5181 
     37 C          27.4638    1.9833   -5.1124 C.2       5 UNK         0.5014 
     38 O          28.1678    2.8725   -5.5918 O.2       5 UNK        -0.5248 
     39 N          26.1472    2.1185   -4.8848 N.am      6 UNK        -0.4434 
     40 CA         25.3822    3.3495   -5.1214 C.3       6 UNK         0.0363 
     41 CB         23.9333    3.1587   -4.6482 C.3       6 UNK        -0.1936 
     42 C          25.4139    3.8346   -6.5831 C.2       6 UNK         0.5081 
     43 O          25.5417    5.0362   -6.8185 O.2       6 UNK        -0.5248 
     44 N          25.3274    2.8967   -7.5356 N.am      7 UNK        -0.4718 
     45 CA         25.4368    3.1555   -8.9745 C.3       7 UNK         0.0273 
     46 CB         24.7671    1.9993   -9.7371 C.3       7 UNK        -0.1935 
     47 C          26.8858    3.3388   -9.4648 C.2       7 UNK         0.5018 
     48 O          27.0706    3.7044  -10.6264 O.2       7 UNK        -0.5186 
     49 N          27.8766    3.0535   -8.6041 N.am      8 UNK        -0.4240 
     50 CA         29.3178    3.0095   -8.8863 C.3       8 UNK         0.0235 
     51 CB         29.8641    4.4159   -9.2126 C.3       8 UNK        -0.2000 
     52 C          29.6900    1.9517   -9.9467 C.2       8 UNK         0.4941 
     53 O          30.6164    2.1610  -10.7323 O.2       8 UNK        -0.5273 
     54 N          28.9562    0.8319   -9.9440 N.am      9 UNK        -0.4262 
     55 CA         29.2026   -0.3430  -10.7782 C.3       9 UNK         0.0264 
     56 CB         27.8649   -1.0424  -11.0701 C.3       9 UNK        -0.1955 
     57 C          30.1815   -1.3130  -10.0978 C.2       9 UNK         0.5031 
     58 O          30.9261   -2.0037  -10.7951 O.2       9 UNK        -0.5390 
     59 N          30.1648   -1.3514   -8.7576 N.am      10 UNK        -0.4204 
     60 CA         31.1055   -2.1061   -7.9314 C.3       10 UNK         0.0237 
     61 CB         30.5900   -2.1508   -6.4843 C.3       10 UNK        -0.1985 
     62 C          32.5139   -1.4898   -7.9701 C.2       10 UNK         0.4970 
     63 O          32.6379   -0.2653   -8.0509 O.2       10 UNK        -0.4914 
     64 N          33.5243   -2.3640   -7.8690 N.am      11 UNK        -0.4285 
     65 CA         34.9681   -2.0745   -7.8499 C.3       11 UNK         0.1007 
     66 C          35.4733   -1.1284   -8.9840 C.2       11 UNK         0.5703 
     67 N          36.4732   -0.2915   -8.7385 N.am      11 UNK        -0.7361 
     68 O          35.0099   -1.2062  -10.1204 O.2       11 UNK        -0.4986 
     69 C69        35.5143   -1.7986   -6.4162 C.3       12 UNK        -0.0947 
     70 S70        34.9751   -0.2354   -5.6405 S.3       12 UNK        -0.2240 
     71 C71        34.9641   -0.6893   -3.8789 C.3       12 UNK         0.0194 
     72 H72        26.5609   -7.3933    0.2594 H         1 UNK         0.0906 
     73 H73        26.6783   -5.9268    1.2331 H         1 UNK         0.0906 
     74 H74        25.1234   -6.4111    0.5533 H         1 UNK         0.0906 
     75 H75        27.5998   -4.2506    0.1181 H         1 UNK         0.3140 
     76 H76        28.1699   -2.7633   -1.3839 H         1 UNK         0.1085 
     77 H77        28.8873   -3.5009   -3.6779 H         1 UNK         0.0836 
     78 H78        28.1150   -5.0433   -3.4387 H         1 UNK         0.0836 
     79 H79        31.1492   -4.4400   -4.2693 H         1 UNK         0.0731 
     80 H80        32.3203   -4.9292   -3.0755 H         1 UNK         0.0731 
     81 H81        33.7811   -3.1525   -4.0215 H         1 UNK         0.1312 
     82 H82        33.0835    0.8545   -2.6587 H         1 UNK         0.1406 
     83 H83        30.1400   -2.1565   -1.9945 H         1 UNK         0.1631 
     84 H84        31.2549    1.0852   -0.9053 H         1 UNK         0.0717 
     85 H85        29.9388   -0.0549   -0.8554 H         1 UNK         0.0717 
     86 H86        28.6445   -0.6149   -3.0949 H         1 UNK         0.0934 
     87 H87        27.4504    0.5884   -2.6946 H         1 UNK         0.0934 
     88 H88        29.0676    0.5886   -5.2942 H         1 UNK         0.0739 
     89 H89        26.7061   -1.0024   -4.7456 H         1 UNK         0.3093 
     90 H90        25.8757   -1.4618   -8.1774 H         1 UNK         0.0818 
     91 H91        27.6190   -3.1817   -7.8471 H         1 UNK         0.0819 
     92 H92        26.0321   -3.8671   -7.5456 H         1 UNK         0.0819 
     93 H93        27.0889   -3.4608   -6.1948 H         1 UNK         0.0819 
     94 H94        24.8175   -2.4414   -5.6685 H         1 UNK         0.3041 
     95 H95        22.5613    0.2784   -5.1842 H         1 UNK         0.0784 
     96 H96        21.4284   -0.9846   -7.0203 H         1 UNK         0.0793 
     97 H97        21.9095   -2.5069   -6.2839 H         1 UNK         0.0793 
     98 H98        20.7918   -1.4284   -5.4464 H         1 UNK         0.0793 
     99 H99        22.6108   -2.2040   -3.8914 H         1 UNK         0.3024 
    100 H100       23.9681   -1.1285   -1.1267 H         1 UNK         0.1171 
    101 H101       23.2743   -3.4989   -0.8842 H         1 UNK         0.0786 
    102 H102       22.1666   -2.6565   -1.9421 H         1 UNK         0.0786 
    103 H103       23.3830   -3.7480   -2.6185 H         1 UNK         0.0786 
    104 H104       25.8088   -2.3503   -0.6946 H         1 UNK         0.2977 
    105 H105       25.6432    1.3399   -4.4646 H         1 UNK         0.3127 
    106 H106       25.8375    4.1300   -4.5083 H         1 UNK         0.0770 
    107 H107       23.4074    2.4248   -5.2577 H         1 UNK         0.0814 
    108 H108       23.3767    4.0942   -4.7164 H         1 UNK         0.0814 
    109 H109       23.8906    2.8292   -3.6099 H         1 UNK         0.0814 
    110 H110       25.1388    1.9341   -7.2628 H         1 UNK         0.2983 
    111 H111       24.8972    4.0763   -9.2065 H         1 UNK         0.0947 
    112 H112       24.7782    2.1778  -10.8131 H         1 UNK         0.0806 
    113 H113       23.7250    1.8791   -9.4404 H         1 UNK         0.0806 
    114 H114       25.2772    1.0517   -9.5580 H         1 UNK         0.0806 
    115 H115       27.6196    2.7948   -7.6579 H         1 UNK         0.3000 
    116 H116       29.7925    2.6807   -7.9604 H         1 UNK         0.0850 
    117 H117       30.9527    4.4059   -9.2783 H         1 UNK         0.0810 
    118 H118       29.5938    5.1344   -8.4388 H         1 UNK         0.0810 
    119 H119       29.4854    4.7880  -10.1649 H         1 UNK         0.0810 
    120 H120       28.2723    0.7178   -9.2002 H         1 UNK         0.3040 
    121 H121       29.6407   -0.0290  -11.7280 H         1 UNK         0.0766 
    122 H122       27.1696   -0.3717  -11.5753 H         1 UNK         0.0812 
    123 H123       27.3854   -1.3967  -10.1572 H         1 UNK         0.0812 
    124 H124       28.0116   -1.9072  -11.7185 H         1 UNK         0.0812 
    125 H125       29.5006   -0.7576   -8.2694 H         1 UNK         0.3205 
    126 H126       31.1516   -3.1266   -8.3179 H         1 UNK         0.0754 
    127 H127       31.2783   -2.7095   -5.8524 H         1 UNK         0.0769 
    128 H128       29.6189   -2.6390   -6.4147 H         1 UNK         0.0769 
    129 H129       30.5020   -1.1522   -6.0557 H         1 UNK         0.0769 
    130 H130       33.2934   -3.3456   -7.8292 H         1 UNK         0.2981 
    131 H131       35.4115   -3.0290   -8.1357 H         1 UNK         0.0541 
    132 H132       36.8541   -0.2083   -7.8091 H         1 UNK         0.3459 
    133 H133       36.8163    0.2979   -9.4804 H         1 UNK         0.3459 
    134 H134       35.2219   -2.6265   -5.7706 H         1 UNK         0.0612 
    135 H135       36.6052   -1.8153   -6.4183 H         1 UNK         0.0612 
    136 H136       35.6867   -1.4842   -3.6889 H         1 UNK         0.0624 
    137 H137       35.3114    0.1701   -3.3035 H         1 UNK         0.0624 
@<TRIPOS>BOND
     1    1    2 1    
     2    1   72 1    
     3    1   73 1    
     4    1   74 1    
     5    2    3 2    
     6    2    4 am   BACKBONE|DICT|INTERRES
     7    4    5 1    
     8    4   75 1    
     9    5    6 1    
    10    5   35 1    
    11    5   76 1    
    12    6    7 1    
    13    6   77 1    
    14    6   78 1    
    15    7    8 1    
    16    8    9 1    
    17    8   79 1    
    18    8   80 1    
    19    9   10 ar   
    20    9   14 ar   
    21   10   11 ar   
    22   10   81 1    
    23   11   12 ar   
    24   11   71 1    
    25   12   13 ar   
    26   12   82 1    
    27   13   14 ar   
    28   13   15 1    
    29   14   83 1    
    30   15   16 1    
    31   15   84 1    
    32   15   85 1    
    33   16   17 1    
    34   17   18 1    
    35   17   86 1    
    36   17   87 1    
    37   18   19 1    
    38   18   37 1    
    39   18   88 1    
    40   19   20 am   BACKBONE|DICT|INTERRES
    41   19   89 1    
    42   20   21 2    
    43   20   22 1    
    44   22   23 1    
    45   22   24 1    
    46   22   90 1    
    47   23   91 1    
    48   23   92 1    
    49   23   93 1    
    50   24   25 am   BACKBONE|DICT|INTERRES
    51   24   94 1    
    52   25   26 2    
    53   25   27 1    
    54   27   28 1    
    55   27   29 1    
    56   27   95 1    
    57   28   96 1    
    58   28   97 1    
    59   28   98 1    
    60   29   30 am   BACKBONE|DICT|INTERRES
    61   29   99 1    
    62   30   31 2    
    63   30   32 1    
    64   32   33 1    
    65   32   34 1    
    66   32  100 1    
    67   33  101 1    
    68   33  102 1    
    69   33  103 1    
    70   34   35 am   BACKBONE|DICT|INTERRES
    71   34  104 1    
    72   35   36 2    
    73   37   38 2    
    74   37   39 am   BACKBONE|DICT|INTERRES
    75   39   40 1    
    76   39  105 1    
    77   40   41 1    
    78   40   42 1    
    79   40  106 1    
    80   41  107 1    
    81   41  108 1    
    82   41  109 1    
    83   42   43 2    
    84   42   44 am   BACKBONE|DICT|INTERRES
    85   44   45 1    
    86   44  110 1    
    87   45   46 1    
    88   45   47 1    
    89   45  111 1    
    90   46  112 1    
    91   46  113 1    
    92   46  114 1    
    93   47   48 2    
    94   47   49 am   BACKBONE|DICT|INTERRES
    95   49   50 1    
    96   49  115 1    
    97   50   51 1    
    98   50   52 1    
    99   50  116 1    
   100   51  117 1    
   101   51  118 1    
   102   51  119 1    
   103   52   53 2    
   104   52   54 am   BACKBONE|DICT|INTERRES
   105   54   55 1    
   106   54  120 1    
   107   55   56 1    
   108   55   57 1    
   109   55  121 1    
   110   56  122 1    
   111   56  123 1    
   112   56  124 1    
   113   57   58 2    
   114   57   59 am   BACKBONE|DICT|INTERRES
   115   59   60 1    
   116   59  125 1    
   117   60   61 1    
   118   60   62 1    
   119   60  126 1    
   120   61  127 1    
   121   61  128 1    
   122   61  129 1    
   123   62   63 2    
   124   62   64 am   BACKBONE|DICT|INTERRES
   125   64   65 1    
   126   64  130 1    
   127   65   66 1    
   128   65   69 1    
   129   65  131 1    
   130   66   67 am   BACKBONE|DICT|INTERRES
   131   66   68 2    
   132   67  132 1    
   133   67  133 1    
   134   69   70 1    
   135   69  134 1    
   136   69  135 1    
   137   70   71 1    
   138   71  136 1    
   139   71  137 1    
@<TRIPOS>SUBSTRUCTURE
     1 UNK         1 GROUP             0       ****    0 ROOT    
