@<TRIPOS>MOLECULE
3R137
137   139    1
SMALL
USER_CHARGES


@<TRIPOS>ATOM
      1 CA         29.1008   -5.7551   -5.4031 C.3       0 UNK        -0.2020 
      2 C          28.0362   -5.5698   -4.3311 C.2       0 UNK         0.4855 
      3 O          26.9773   -6.1943   -4.4005 O.2       0 UNK        -0.5197 
      4 N          28.3126   -4.7184   -3.3381 N.am      1 UNK        -0.4892 
      5 CA         27.4017   -4.3882   -2.2399 C.3       1 UNK         0.0835 
      6 C6         28.1545   -3.8244   -1.0076 C.3       12 UNK        -0.0855 
      7 S7         29.6192   -4.7552   -0.4248 S.3       12 UNK        -0.2931 
      8 C8         31.0080   -4.2936   -1.5385 C.3       12 UNK         0.0378 
      9 C9         31.0711   -2.8381   -2.0108 C.ar      12 UNK        -0.0802 
     10 C10        31.5484   -2.5614   -3.2973 C.ar      12 UNK        -0.0944 
     11 C11        31.6286   -1.2452   -3.7621 C.ar      12 UNK        -0.0787 
     12 C12        31.1864   -0.1996   -2.9492 C.ar      12 UNK        -0.0862 
     13 C13        30.6836   -0.4587   -1.6711 C.ar      12 UNK        -0.0733 
     14 C14        30.6902   -1.7711   -1.1879 C.ar      12 UNK        -0.0832 
     15 C15        30.1106    0.6609   -0.8067 C.3       12 UNK         0.0240 
     16 S16        29.0000    1.8113   -1.6999 S.3       12 UNK        -0.2522 
     17 C17        27.8254    0.7193   -2.5840 C.3       12 UNK        -0.0967 
     18 CA         27.8264    1.0019   -4.1115 C.3       5 UNK         0.0660 
     19 N          27.4306   -0.1674   -4.8999 N.am      5 UNK        -0.4015 
     20 C          27.5117   -0.2529   -6.2356 C.2       4 UNK         0.4946 
     21 O          27.9697    0.6323   -6.9556 O.2       4 UNK        -0.5353 
     22 CA         26.9425   -1.5179   -6.8896 C.3       4 UNK         0.0277 
     23 CB         27.9557   -2.6689   -6.8240 C.3       4 UNK        -0.1981 
     24 N          25.6743   -1.9257   -6.2850 N.am      4 UNK        -0.4209 
     25 C          24.5207   -1.2614   -6.4409 C.2       3 UNK         0.4942 
     26 O          24.4025   -0.2444   -7.1231 O.2       3 UNK        -0.5208 
     27 CA         23.2974   -1.8040   -5.6842 C.3       3 UNK         0.0250 
     28 CB         22.6483   -2.9612   -6.4601 C.3       3 UNK        -0.1990 
     29 N          23.6095   -2.2379   -4.3204 N.am      3 UNK        -0.4232 
     30 C          24.0293   -1.4173   -3.3483 C.2       2 UNK         0.4993 
     31 O          24.2149   -0.2088   -3.4961 O.2       2 UNK        -0.5286 
     32 CA         24.3447   -2.0645   -1.9905 C.3       2 UNK         0.0209 
     33 CB         23.0488   -2.4351   -1.2500 C.3       2 UNK        -0.1931 
     34 N          25.2447   -3.2287   -2.0259 N.am      2 UNK        -0.4546 
     35 C          26.4042   -3.3067   -2.6963 C.2       1 UNK         0.5154 
     36 O          26.7565   -2.4982   -3.5572 O.2       1 UNK        -0.5181 
     37 C          26.9833    2.2435   -4.4764 C.2       5 UNK         0.5014 
     38 O          27.5489    3.3203   -4.6718 O.2       5 UNK        -0.5248 
     39 N          25.6587    2.0654   -4.6090 N.am      6 UNK        -0.4434 
     40 CA         24.7209    3.1058   -5.0407 C.3       6 UNK         0.0363 
     41 CB         23.2775    2.6100   -4.8593 C.3       6 UNK        -0.1936 
     42 C          24.9529    3.5723   -6.4889 C.2       6 UNK         0.5081 
     43 O          24.8993    4.7745   -6.7500 O.2       6 UNK        -0.5248 
     44 N          25.2089    2.6251   -7.4020 N.am      7 UNK        -0.4718 
     45 CA         25.4788    2.8959   -8.8182 C.3       7 UNK         0.0273 
     46 CB         25.2742    1.6011   -9.6221 C.3       7 UNK        -0.1935 
     47 C          26.8841    3.4624   -9.0920 C.2       7 UNK         0.5018 
     48 O          27.0926    4.0281  -10.1660 O.2       7 UNK        -0.5186 
     49 N          27.8169    3.2661   -8.1477 N.am      8 UNK        -0.4240 
     50 CA         29.2664    3.4699   -8.2666 C.3       8 UNK         0.0235 
     51 CB         29.6179    4.9576   -8.4822 C.3       8 UNK        -0.2000 
     52 C          29.8732    2.5291   -9.3275 C.2       8 UNK         0.4941 
     53 O          30.6455    2.9653  -10.1838 O.2       8 UNK        -0.5273 
     54 N          29.4764    1.2543   -9.2534 N.am      9 UNK        -0.4262 
     55 CA         29.8758    0.1646  -10.1400 C.3       9 UNK         0.0264 
     56 CB         28.5995   -0.4678  -10.7243 C.3       9 UNK        -0.1955 
     57 C          30.6931   -0.8722   -9.3546 C.2       9 UNK         0.5031 
     58 O          30.8514   -0.7419   -8.1384 O.2       9 UNK        -0.5390 
     59 N          31.2057   -1.8861  -10.0678 N.am      10 UNK        -0.4204 
     60 CA         32.0248   -3.0204   -9.6034 C.3       10 UNK         0.0237 
     61 CB         31.2850   -3.8710   -8.5498 C.3       10 UNK        -0.1985 
     62 C          33.4311   -2.6251   -9.1156 C.2       10 UNK         0.4970 
     63 O          34.4120   -3.2326   -9.5464 O.2       10 UNK        -0.4914 
     64 N          33.5031   -1.6130   -8.2480 N.am      11 UNK        -0.4285 
     65 CA         34.7292   -0.9503   -7.7933 C.3       11 UNK         0.1007 
     66 C          35.4426   -0.1899   -8.9454 C.2       11 UNK         0.5703 
     67 N          36.7668   -0.1231   -8.9160 N.am      11 UNK        -0.7361 
     68 O          34.8097    0.3701   -9.8393 O.2       11 UNK        -0.4986 
     69 C69        34.4256    0.0051   -6.6117 C.3       12 UNK        -0.0947 
     70 S70        34.0137   -0.8861   -5.0760 S.3       12 UNK        -0.2240 
     71 C71        32.1968   -0.9465   -5.1390 C.3       12 UNK         0.0194 
     72 H72        29.8911   -5.0083   -5.3270 H         1 UNK         0.0906 
     73 H73        29.5541   -6.7418   -5.3131 H         1 UNK         0.0906 
     74 H74        28.6567   -5.6757   -6.3948 H         1 UNK         0.0906 
     75 H75        29.1706   -4.1877   -3.3501 H         1 UNK         0.3140 
     76 H76        26.8542   -5.2873   -1.9479 H         1 UNK         0.1085 
     77 H77        28.4189   -2.7826   -1.1681 H         1 UNK         0.0836 
     78 H78        27.4655   -3.7947   -0.1611 H         1 UNK         0.0836 
     79 H79        30.9760   -4.9622   -2.4000 H         1 UNK         0.0731 
     80 H80        31.9422   -4.5226   -1.0244 H         1 UNK         0.0731 
     81 H81        31.8816   -3.3684   -3.9359 H         1 UNK         0.1312 
     82 H82        31.2217    0.8169   -3.3163 H         1 UNK         0.1406 
     83 H83        30.3427   -1.9710   -0.1834 H         1 UNK         0.1631 
     84 H84        30.9358    1.2314   -0.3787 H         1 UNK         0.0717 
     85 H85        29.5546    0.2450    0.0349 H         1 UNK         0.0717 
     86 H86        28.1010   -0.3189   -2.3957 H         1 UNK         0.0934 
     87 H87        26.8278    0.8342   -2.1553 H         1 UNK         0.0934 
     88 H88        28.8541    1.2160   -4.4140 H         1 UNK         0.0739 
     89 H89        27.0727   -0.9725   -4.3861 H         1 UNK         0.3093 
     90 H90        26.7534   -1.2931   -7.9408 H         1 UNK         0.0818 
     91 H91        28.2194   -2.9151   -5.7959 H         1 UNK         0.0819 
     92 H92        27.5695   -3.5679   -7.3038 H         1 UNK         0.0819 
     93 H93        28.8781   -2.3979   -7.3365 H         1 UNK         0.0819 
     94 H94        25.7074   -2.6945   -5.6296 H         1 UNK         0.3041 
     95 H95        22.5703   -0.9918   -5.6148 H         1 UNK         0.0784 
     96 H96        22.3928   -2.6539   -7.4753 H         1 UNK         0.0793 
     97 H97        23.3136   -3.8220   -6.5378 H         1 UNK         0.0793 
     98 H98        21.7257   -3.2911   -5.9820 H         1 UNK         0.0793 
     99 H99        23.5089   -3.2206   -4.1113 H         1 UNK         0.3024 
    100 H100       24.8548   -1.2997   -1.4007 H         1 UNK         0.1171 
    101 H101       22.3643   -1.5863   -1.2089 H         1 UNK         0.0786 
    102 H102       23.2507   -2.7328   -0.2208 H         1 UNK         0.0786 
    103 H103       22.5221   -3.2555   -1.7389 H         1 UNK         0.0786 
    104 H104       25.0461   -3.9486   -1.3455 H         1 UNK         0.2977 
    105 H105       25.2550    1.1590   -4.3822 H         1 UNK         0.3127 
    106 H106       24.8655    3.9706   -4.3897 H         1 UNK         0.0770 
    107 H107       23.0806    1.7164   -5.4530 H         1 UNK         0.0814 
    108 H108       22.5600    3.3721   -5.1661 H         1 UNK         0.0814 
    109 H109       23.0694    2.3698   -3.8165 H         1 UNK         0.0814 
    110 H110       25.1716    1.6484   -7.1250 H         1 UNK         0.2983 
    111 H111       24.7565    3.6350   -9.1718 H         1 UNK         0.0947 
    112 H112       25.4461    1.7666  -10.6866 H         1 UNK         0.0806 
    113 H113       24.2575    1.2231   -9.5137 H         1 UNK         0.0806 
    114 H114       25.9596    0.8167   -9.2985 H         1 UNK         0.0806 
    115 H115       27.5312    2.7282   -7.3374 H         1 UNK         0.3000 
    116 H116       29.6928    3.1658   -7.3091 H         1 UNK         0.0850 
    117 H117       30.6968    5.1105   -8.4381 H         1 UNK         0.0810 
    118 H118       29.1690    5.5855   -7.7126 H         1 UNK         0.0810 
    119 H119       29.2803    5.3217   -9.4527 H         1 UNK         0.0810 
    120 H120       28.9209    0.9770   -8.4432 H         1 UNK         0.3040 
    121 H121       30.4965    0.5429  -10.9548 H         1 UNK         0.0766 
    122 H122       27.9863    0.2785  -11.2300 H         1 UNK         0.0812 
    123 H123       27.9879   -0.9299   -9.9493 H         1 UNK         0.0812 
    124 H124       28.8341   -1.2392  -11.4583 H         1 UNK         0.0812 
    125 H125       31.0437   -1.8725  -11.0656 H         1 UNK         0.3205 
    126 H126       32.1684   -3.6518  -10.4819 H         1 UNK         0.0754 
    127 H127       31.8495   -4.7746   -8.3163 H         1 UNK         0.0769 
    128 H128       30.3051   -4.1848   -8.9094 H         1 UNK         0.0769 
    129 H129       31.1414   -3.3328   -7.6130 H         1 UNK         0.0769 
    130 H130       32.6252   -1.1684   -7.9902 H         1 UNK         0.2981 
    131 H131       35.4093   -1.7298   -7.4439 H         1 UNK         0.0541 
    132 H132       37.2955   -0.5667   -8.1809 H         1 UNK         0.3459 
    133 H133       37.2480    0.3781   -9.6464 H         1 UNK         0.3459 
    134 H134       35.2989    0.6194   -6.3842 H         1 UNK         0.0612 
    135 H135       33.6265    0.7036   -6.8672 H         1 UNK         0.0612 
    136 H136       31.8833   -1.7166   -5.8442 H         1 UNK         0.0624 
    137 H137       31.8015   -0.0005   -5.5127 H         1 UNK         0.0624 
@<TRIPOS>BOND
     1    1    2 1    
     2    1   72 1    
     3    1   73 1    
     4    1   74 1    
     5    2    3 2    
     6    2    4 am   BACKBONE|DICT|INTERRES
     7    4    5 1    
     8    4   75 1    
     9    5    6 1    
    10    5   35 1    
    11    5   76 1    
    12    6    7 1    
    13    6   77 1    
    14    6   78 1    
    15    7    8 1    
    16    8    9 1    
    17    8   79 1    
    18    8   80 1    
    19    9   10 ar   
    20    9   14 ar   
    21   10   11 ar   
    22   10   81 1    
    23   11   12 ar   
    24   11   71 1    
    25   12   13 ar   
    26   12   82 1    
    27   13   14 ar   
    28   13   15 1    
    29   14   83 1    
    30   15   16 1    
    31   15   84 1    
    32   15   85 1    
    33   16   17 1    
    34   17   18 1    
    35   17   86 1    
    36   17   87 1    
    37   18   19 1    
    38   18   37 1    
    39   18   88 1    
    40   19   20 am   BACKBONE|DICT|INTERRES
    41   19   89 1    
    42   20   21 2    
    43   20   22 1    
    44   22   23 1    
    45   22   24 1    
    46   22   90 1    
    47   23   91 1    
    48   23   92 1    
    49   23   93 1    
    50   24   25 am   BACKBONE|DICT|INTERRES
    51   24   94 1    
    52   25   26 2    
    53   25   27 1    
    54   27   28 1    
    55   27   29 1    
    56   27   95 1    
    57   28   96 1    
    58   28   97 1    
    59   28   98 1    
    60   29   30 am   BACKBONE|DICT|INTERRES
    61   29   99 1    
    62   30   31 2    
    63   30   32 1    
    64   32   33 1    
    65   32   34 1    
    66   32  100 1    
    67   33  101 1    
    68   33  102 1    
    69   33  103 1    
    70   34   35 am   BACKBONE|DICT|INTERRES
    71   34  104 1    
    72   35   36 2    
    73   37   38 2    
    74   37   39 am   BACKBONE|DICT|INTERRES
    75   39   40 1    
    76   39  105 1    
    77   40   41 1    
    78   40   42 1    
    79   40  106 1    
    80   41  107 1    
    81   41  108 1    
    82   41  109 1    
    83   42   43 2    
    84   42   44 am   BACKBONE|DICT|INTERRES
    85   44   45 1    
    86   44  110 1    
    87   45   46 1    
    88   45   47 1    
    89   45  111 1    
    90   46  112 1    
    91   46  113 1    
    92   46  114 1    
    93   47   48 2    
    94   47   49 am   BACKBONE|DICT|INTERRES
    95   49   50 1    
    96   49  115 1    
    97   50   51 1    
    98   50   52 1    
    99   50  116 1    
   100   51  117 1    
   101   51  118 1    
   102   51  119 1    
   103   52   53 2    
   104   52   54 am   BACKBONE|DICT|INTERRES
   105   54   55 1    
   106   54  120 1    
   107   55   56 1    
   108   55   57 1    
   109   55  121 1    
   110   56  122 1    
   111   56  123 1    
   112   56  124 1    
   113   57   58 2    
   114   57   59 am   BACKBONE|DICT|INTERRES
   115   59   60 1    
   116   59  125 1    
   117   60   61 1    
   118   60   62 1    
   119   60  126 1    
   120   61  127 1    
   121   61  128 1    
   122   61  129 1    
   123   62   63 2    
   124   62   64 am   BACKBONE|DICT|INTERRES
   125   64   65 1    
   126   64  130 1    
   127   65   66 1    
   128   65   69 1    
   129   65  131 1    
   130   66   67 am   BACKBONE|DICT|INTERRES
   131   66   68 2    
   132   67  132 1    
   133   67  133 1    
   134   69   70 1    
   135   69  134 1    
   136   69  135 1    
   137   70   71 1    
   138   71  136 1    
   139   71  137 1    
@<TRIPOS>SUBSTRUCTURE
     1 UNK         1 GROUP             0       ****    0 ROOT    
