@<TRIPOS>MOLECULE
3R137
137   139    1
SMALL
USER_CHARGES


@<TRIPOS>ATOM
      1 CA         30.7610   -3.2445    0.0871 C.3       0 UNK        -0.2020 
      2 C          29.8314   -4.4335   -0.1033 C.2       0 UNK         0.4855 
      3 O          30.2190   -5.5693    0.1694 O.2       0 UNK        -0.5197 
      4 N          28.6056   -4.1789   -0.5764 N.am      1 UNK        -0.4892 
      5 CA         27.5438   -5.1739   -0.7915 C.3       1 UNK         0.0835 
      6 C6         26.1419   -4.5236   -0.9604 C.3       12 UNK        -0.0855 
      7 S7         25.7923   -3.1226    0.1597 S.3       12 UNK        -0.2931 
      8 C8         25.6735   -1.7402   -1.0252 C.3       12 UNK         0.0378 
      9 C9         27.0411   -1.1830   -1.4014 C.ar      12 UNK        -0.0802 
     10 C10        27.8194   -1.7925   -2.3910 C.ar      12 UNK        -0.0944 
     11 C11        29.0784   -1.2826   -2.7229 C.ar      12 UNK        -0.0787 
     12 C12        29.5375   -0.1235   -2.0936 C.ar      12 UNK        -0.0862 
     13 C13        28.7444    0.5272   -1.1460 C.ar      12 UNK        -0.0733 
     14 C14        27.5141   -0.0256   -0.7783 C.ar      12 UNK        -0.0832 
     15 C15        29.1837    1.8649   -0.5690 C.3       12 UNK         0.0240 
     16 S16        29.1463    3.1930   -1.8243 S.3       12 UNK        -0.2522 
     17 C17        27.5049    2.9729   -2.5999 C.3       12 UNK        -0.0967 
     18 CA         27.6222    2.3327   -4.0151 C.3       5 UNK         0.0660 
     19 N          26.5985    1.3076   -4.2561 N.am      5 UNK        -0.4015 
     20 C          26.4531    0.5770   -5.3733 C.2       4 UNK         0.4946 
     21 O          27.0880    0.7457   -6.4195 O.2       4 UNK        -0.5353 
     22 CA         25.4098   -0.5442   -5.3185 C.3       4 UNK         0.0277 
     23 CB         24.1481   -0.1491   -6.1043 C.3       4 UNK        -0.1981 
     24 N          25.9921   -1.7536   -5.9012 N.am      4 UNK        -0.4209 
     25 C          25.8881   -2.9884   -5.3915 C.2       3 UNK         0.4942 
     26 O          25.2509   -3.2504   -4.3713 O.2       3 UNK        -0.5208 
     27 CA         26.6206   -4.1379   -6.1050 C.3       3 UNK         0.0250 
     28 CB         27.3550   -3.7299   -7.3988 C.3       3 UNK        -0.1990 
     29 N          27.5454   -4.7534   -5.1548 N.am      3 UNK        -0.4232 
     30 C          28.0865   -5.9748   -5.2551 C.2       2 UNK         0.4993 
     31 O          27.8642   -6.7500   -6.1856 O.2       2 UNK        -0.5286 
     32 CA         29.0469   -6.4099   -4.1323 C.3       2 UNK         0.0209 
     33 CB         30.5057   -6.1422   -4.5395 C.3       2 UNK        -0.1931 
     34 N          28.7713   -5.7386   -2.8586 N.am      2 UNK        -0.4546 
     35 C          27.8093   -6.1036   -1.9984 C.2       1 UNK         0.5154 
     36 O          27.1095   -7.1057   -2.1522 O.2       1 UNK        -0.5181 
     37 C          27.6332    3.4181   -5.1058 C.2       5 UNK         0.5014 
     38 O          26.5970    4.0464   -5.3391 O.2       5 UNK        -0.5248 
     39 N          28.7968    3.6060   -5.7457 N.am      6 UNK        -0.4434 
     40 CA         29.0961    4.5173   -6.8597 C.3       6 UNK         0.0363 
     41 CB         28.8757    5.9913   -6.4669 C.3       6 UNK        -0.1936 
     42 C          28.3609    4.1741   -8.1682 C.2       6 UNK         0.5081 
     43 O          29.0147    4.0432   -9.2037 O.2       6 UNK        -0.5248 
     44 N          27.0325    4.0269   -8.0914 N.am      7 UNK        -0.4718 
     45 CA         26.0875    3.8263   -9.1922 C.3       7 UNK         0.0273 
     46 CB         24.6712    3.6739   -8.6145 C.3       7 UNK        -0.1935 
     47 C          26.4149    2.6456  -10.1170 C.2       7 UNK         0.5018 
     48 O          26.2658    2.7779  -11.3321 O.2       7 UNK        -0.5186 
     49 N          26.8965    1.5323   -9.5488 N.am      8 UNK        -0.4240 
     50 CA         27.3110    0.3376  -10.2911 C.3       8 UNK         0.0235 
     51 CB         27.1123   -0.8912   -9.3900 C.3       8 UNK        -0.2000 
     52 C          28.7538    0.4448  -10.8284 C.2       8 UNK         0.4941 
     53 O          29.5051   -0.5281  -10.7449 O.2       8 UNK        -0.5273 
     54 N          29.1336    1.6303  -11.3304 N.am      9 UNK        -0.4262 
     55 CA         30.4706    2.0129  -11.8073 C.3       9 UNK         0.0264 
     56 CB         30.7930    1.2999  -13.1378 C.3       9 UNK        -0.1955 
     57 C          31.5564    1.8014  -10.7325 C.2       9 UNK         0.5031 
     58 O          32.5947    1.1992  -11.0122 O.2       9 UNK        -0.5390 
     59 N          31.2609    2.2685   -9.5092 N.am      10 UNK        -0.4204 
     60 CA         32.0224    2.0504   -8.2705 C.3       10 UNK         0.0237 
     61 CB         33.3815    2.7810   -8.3187 C.3       10 UNK        -0.1985 
     62 C          32.1430    0.5590   -7.8871 C.2       10 UNK         0.4970 
     63 O          33.1898    0.1326   -7.3966 O.2       10 UNK        -0.4914 
     64 N          31.0557   -0.1915   -8.1095 N.am      11 UNK        -0.4285 
     65 CA         30.9187   -1.6381   -7.8768 C.3       11 UNK         0.1007 
     66 C          31.8454   -2.4783   -8.7985 C.2       11 UNK         0.5703 
     67 N          31.7901   -2.2454  -10.1033 N.am      11 UNK        -0.7361 
     68 O          32.6011   -3.3375   -8.3492 O.2       11 UNK        -0.4986 
     69 C69        30.9820   -2.0377   -6.3749 C.3       12 UNK        -0.0947 
     70 S70        29.7199   -1.1716   -5.3888 S.3       12 UNK        -0.2240 
     71 C71        29.9417   -1.9611   -3.7728 C.3       12 UNK         0.0194 
     72 H72        31.5831   -3.2915   -0.6265 H         1 UNK         0.0906 
     73 H73        30.2423   -2.2960   -0.0523 H         1 UNK         0.0906 
     74 H74        31.1805   -3.2528    1.0927 H         1 UNK         0.0906 
     75 H75        28.3267   -3.2189   -0.7364 H         1 UNK         0.3140 
     76 H76        27.5137   -5.8101    0.0960 H         1 UNK         0.1085 
     77 H77        25.9835   -4.1969   -1.9886 H         1 UNK         0.0836 
     78 H78        25.3715   -5.2775   -0.7867 H         1 UNK         0.0836 
     79 H79        25.1308   -2.0507   -1.9190 H         1 UNK         0.0731 
     80 H80        25.0651   -0.9558   -0.5725 H         1 UNK         0.0731 
     81 H81        27.4478   -2.6700   -2.8957 H         1 UNK         0.1312 
     82 H82        30.4924    0.2992   -2.3753 H         1 UNK         0.1406 
     83 H83        26.9044    0.4687   -0.0337 H         1 UNK         0.1631 
     84 H84        28.5478    2.1535    0.2693 H         1 UNK         0.0717 
     85 H85        30.1956    1.7763   -0.1715 H         1 UNK         0.0717 
     86 H86        26.8807    2.3693   -1.9421 H         1 UNK         0.0934 
     87 H87        27.0021    3.9424   -2.6258 H         1 UNK         0.0934 
     88 H88        28.5652    1.7853   -4.0775 H         1 UNK         0.0739 
     89 H89        25.9986    1.1020   -3.4724 H         1 UNK         0.3093 
     90 H90        25.1393   -0.7223   -4.2754 H         1 UNK         0.0818 
     91 H91        23.3944   -0.9355   -6.0622 H         1 UNK         0.0819 
     92 H92        23.6980    0.7555   -5.6933 H         1 UNK         0.0819 
     93 H93        24.3714    0.0449   -7.1543 H         1 UNK         0.0819 
     94 H94        26.6040   -1.5884   -6.6885 H         1 UNK         0.3041 
     95 H95        25.8581   -4.8755   -6.3637 H         1 UNK         0.0784 
     96 H96        26.6529   -3.3306   -8.1299 H         1 UNK         0.0793 
     97 H97        28.1236   -2.9827   -7.2100 H         1 UNK         0.0793 
     98 H98        27.8395   -4.5847   -7.8706 H         1 UNK         0.0793 
     99 H99        27.7324   -4.2137   -4.3248 H         1 UNK         0.3024 
    100 H100       28.9238   -7.4874   -3.9976 H         1 UNK         0.1171 
    101 H101       31.2010   -6.5014   -3.7805 H         1 UNK         0.0786 
    102 H102       30.7504   -6.6571   -5.4697 H         1 UNK         0.0786 
    103 H103       30.6990   -5.0811   -4.6967 H         1 UNK         0.0786 
    104 H104       29.3376   -4.9387   -2.6189 H         1 UNK         0.2977 
    105 H105       29.5667    3.0122   -5.4705 H         1 UNK         0.3127 
    106 H106       30.1618    4.4035   -7.0600 H         1 UNK         0.0770 
    107 H107       27.8279    6.2127   -6.2627 H         1 UNK         0.0814 
    108 H108       29.1944    6.6575   -7.2697 H         1 UNK         0.0814 
    109 H109       29.4519    6.2548   -5.5800 H         1 UNK         0.0814 
    110 H110       26.6311    4.1073   -7.1585 H         1 UNK         0.2983 
    111 H111       26.1134    4.7307   -9.8034 H         1 UNK         0.0947 
    112 H112       23.9355    3.5372   -9.4084 H         1 UNK         0.0806 
    113 H113       24.3760    4.5584   -8.0496 H         1 UNK         0.0806 
    114 H114       24.5992    2.8127   -7.9484 H         1 UNK         0.0806 
    115 H115       27.0113    1.5082   -8.5410 H         1 UNK         0.3000 
    116 H116       26.6620    0.2138  -11.1607 H         1 UNK         0.0850 
    117 H117       26.0786   -0.9708   -9.0531 H         1 UNK         0.0810 
    118 H118       27.7523   -0.8438   -8.5092 H         1 UNK         0.0810 
    119 H119       27.3513   -1.8115   -9.9248 H         1 UNK         0.0810 
    120 H120       28.4361    2.3652  -11.3433 H         1 UNK         0.3040 
    121 H121       30.4362    3.0857  -12.0032 H         1 UNK         0.0766 
    122 H122       30.0243    1.4906  -13.8865 H         1 UNK         0.0812 
    123 H123       30.8749    0.2201  -13.0087 H         1 UNK         0.0812 
    124 H124       31.7401    1.6507  -13.5494 H         1 UNK         0.0812 
    125 H125       30.3976    2.8023   -9.4141 H         1 UNK         0.3205 
    126 H126       31.4392    2.5056   -7.4709 H         1 UNK         0.0754 
    127 H127       34.0530    2.3404   -9.0563 H         1 UNK         0.0769 
    128 H128       33.8857    2.7340   -7.3526 H         1 UNK         0.0769 
    129 H129       33.2561    3.8351   -8.5662 H         1 UNK         0.0769 
    130 H130       30.2712    0.2367   -8.5761 H         1 UNK         0.2981 
    131 H131       29.9145   -1.8862   -8.2179 H         1 UNK         0.0541 
    132 H132       31.1278   -1.5638  -10.4641 H         1 UNK         0.3459 
    133 H133       32.3782   -2.7672  -10.7323 H         1 UNK         0.3459 
    134 H134       31.9670   -1.8279   -5.9556 H         1 UNK         0.0612 
    135 H135       30.8173   -3.1107   -6.2638 H         1 UNK         0.0612 
    136 H136       30.9921   -1.9072   -3.4820 H         1 UNK         0.0624 
    137 H137       29.6922   -3.0187   -3.8501 H         1 UNK         0.0624 
@<TRIPOS>BOND
     1    1    2 1    
     2    1   72 1    
     3    1   73 1    
     4    1   74 1    
     5    2    3 2    
     6    2    4 am   BACKBONE|DICT|INTERRES
     7    4    5 1    
     8    4   75 1    
     9    5    6 1    
    10    5   35 1    
    11    5   76 1    
    12    6    7 1    
    13    6   77 1    
    14    6   78 1    
    15    7    8 1    
    16    8    9 1    
    17    8   79 1    
    18    8   80 1    
    19    9   10 ar   
    20    9   14 ar   
    21   10   11 ar   
    22   10   81 1    
    23   11   12 ar   
    24   11   71 1    
    25   12   13 ar   
    26   12   82 1    
    27   13   14 ar   
    28   13   15 1    
    29   14   83 1    
    30   15   16 1    
    31   15   84 1    
    32   15   85 1    
    33   16   17 1    
    34   17   18 1    
    35   17   86 1    
    36   17   87 1    
    37   18   19 1    
    38   18   37 1    
    39   18   88 1    
    40   19   20 am   BACKBONE|DICT|INTERRES
    41   19   89 1    
    42   20   21 2    
    43   20   22 1    
    44   22   23 1    
    45   22   24 1    
    46   22   90 1    
    47   23   91 1    
    48   23   92 1    
    49   23   93 1    
    50   24   25 am   BACKBONE|DICT|INTERRES
    51   24   94 1    
    52   25   26 2    
    53   25   27 1    
    54   27   28 1    
    55   27   29 1    
    56   27   95 1    
    57   28   96 1    
    58   28   97 1    
    59   28   98 1    
    60   29   30 am   BACKBONE|DICT|INTERRES
    61   29   99 1    
    62   30   31 2    
    63   30   32 1    
    64   32   33 1    
    65   32   34 1    
    66   32  100 1    
    67   33  101 1    
    68   33  102 1    
    69   33  103 1    
    70   34   35 am   BACKBONE|DICT|INTERRES
    71   34  104 1    
    72   35   36 2    
    73   37   38 2    
    74   37   39 am   BACKBONE|DICT|INTERRES
    75   39   40 1    
    76   39  105 1    
    77   40   41 1    
    78   40   42 1    
    79   40  106 1    
    80   41  107 1    
    81   41  108 1    
    82   41  109 1    
    83   42   43 2    
    84   42   44 am   BACKBONE|DICT|INTERRES
    85   44   45 1    
    86   44  110 1    
    87   45   46 1    
    88   45   47 1    
    89   45  111 1    
    90   46  112 1    
    91   46  113 1    
    92   46  114 1    
    93   47   48 2    
    94   47   49 am   BACKBONE|DICT|INTERRES
    95   49   50 1    
    96   49  115 1    
    97   50   51 1    
    98   50   52 1    
    99   50  116 1    
   100   51  117 1    
   101   51  118 1    
   102   51  119 1    
   103   52   53 2    
   104   52   54 am   BACKBONE|DICT|INTERRES
   105   54   55 1    
   106   54  120 1    
   107   55   56 1    
   108   55   57 1    
   109   55  121 1    
   110   56  122 1    
   111   56  123 1    
   112   56  124 1    
   113   57   58 2    
   114   57   59 am   BACKBONE|DICT|INTERRES
   115   59   60 1    
   116   59  125 1    
   117   60   61 1    
   118   60   62 1    
   119   60  126 1    
   120   61  127 1    
   121   61  128 1    
   122   61  129 1    
   123   62   63 2    
   124   62   64 am   BACKBONE|DICT|INTERRES
   125   64   65 1    
   126   64  130 1    
   127   65   66 1    
   128   65   69 1    
   129   65  131 1    
   130   66   67 am   BACKBONE|DICT|INTERRES
   131   66   68 2    
   132   67  132 1    
   133   67  133 1    
   134   69   70 1    
   135   69  134 1    
   136   69  135 1    
   137   70   71 1    
   138   71  136 1    
   139   71  137 1    
@<TRIPOS>SUBSTRUCTURE
     1 UNK         1 GROUP             0       ****    0 ROOT    
