@<TRIPOS>MOLECULE
3R137
137   139    1
SMALL
USER_CHARGES


@<TRIPOS>ATOM
      1 CA         27.2817   -2.5618   -5.9298 C.3       0 UNK        -0.2020 
      2 C          26.8088   -3.7468   -5.1100 C.2       0 UNK         0.4855 
      3 O          25.9388   -4.4952   -5.5568 O.2       0 UNK        -0.5197 
      4 N          27.3716   -3.9198   -3.9098 N.am      1 UNK        -0.4892 
      5 CA         27.0377   -4.9838   -2.9602 C.3       1 UNK         0.0835 
      6 C6         28.0926   -5.0858   -1.8318 C.3       12 UNK        -0.0855 
      7 S7         29.7638   -5.4217   -2.4882 S.3       12 UNK        -0.2931 
      8 C8         30.8161   -4.4781   -1.3424 C.3       12 UNK         0.0378 
      9 C9         30.9252   -3.0031   -1.7110 C.ar      12 UNK        -0.0802 
     10 C10        31.9106   -2.5769   -2.6095 C.ar      12 UNK        -0.0944 
     11 C11        32.1023   -1.2142   -2.8604 C.ar      12 UNK        -0.0787 
     12 C12        31.2821   -0.2781   -2.2240 C.ar      12 UNK        -0.0862 
     13 C13        30.2762   -0.6901   -1.3437 C.ar      12 UNK        -0.0733 
     14 C14        30.1031   -2.0548   -1.0918 C.ar      12 UNK        -0.0832 
     15 C15        29.4270    0.3391   -0.6062 C.3       12 UNK         0.0240 
     16 S16        27.8163    0.6344   -1.4066 S.3       12 UNK        -0.2522 
     17 C17        28.3069    1.4966   -2.9374 C.3       12 UNK        -0.0967 
     18 CA         27.8915    0.6781   -4.1915 C.3       5 UNK         0.0660 
     19 N          26.4347    0.6581   -4.3697 N.am      5 UNK        -0.4015 
     20 C          25.6557    1.6444   -4.8324 C.2       4 UNK         0.4946 
     21 O          26.0986    2.7079   -5.2733 O.2       4 UNK        -0.5353 
     22 CA         24.1250    1.4276   -4.7550 C.3       4 UNK         0.0277 
     23 CB         23.3426    2.5489   -5.4666 C.3       4 UNK        -0.1981 
     24 N          23.6320    0.1339   -5.2514 N.am      4 UNK        -0.4209 
     25 C          23.8256   -1.0690   -4.6935 C.2       3 UNK         0.4942 
     26 O          24.5713   -1.2565   -3.7292 O.2       3 UNK        -0.5208 
     27 CA         23.0619   -2.2485   -5.3256 C.3       3 UNK         0.0250 
     28 CB         23.4315   -2.4472   -6.8067 C.3       3 UNK        -0.1990 
     29 N          23.3301   -3.4933   -4.6027 N.am      3 UNK        -0.4232 
     30 C          22.6749   -3.9031   -3.5066 C.2       2 UNK         0.4993 
     31 O          21.6873   -3.3289   -3.0452 O.2       2 UNK        -0.5286 
     32 CA         23.1971   -5.1709   -2.8038 C.3       2 UNK         0.0209 
     33 CB         22.4010   -6.4051   -3.2593 C.3       2 UNK        -0.1931 
     34 N          24.6231   -5.4005   -3.0504 N.am      2 UNK        -0.4546 
     35 C          25.6136   -4.7710   -2.4039 C.2       1 UNK         0.5154 
     36 O          25.4355   -4.0253   -1.4387 O.2       1 UNK        -0.5181 
     37 C          28.6173    1.0806   -5.4944 C.2       5 UNK         0.5014 
     38 O          28.4038    0.4339   -6.5239 O.2       5 UNK        -0.5248 
     39 N          29.4461    2.1333   -5.4445 N.am      6 UNK        -0.4434 
     40 CA         30.2862    2.6119   -6.5432 C.3       6 UNK         0.0363 
     41 CB         31.1603    3.7734   -6.0464 C.3       6 UNK        -0.1936 
     42 C          29.5204    3.0206   -7.8101 C.2       6 UNK         0.5081 
     43 O          30.0886    2.9225   -8.8962 O.2       6 UNK        -0.5248 
     44 N          28.2493    3.4227   -7.6700 N.am      7 UNK        -0.4718 
     45 CA         27.3692    3.7552   -8.7936 C.3       7 UNK         0.0273 
     46 CB         26.1142    4.4678   -8.2644 C.3       7 UNK        -0.1935 
     47 C          26.9769    2.5347   -9.6476 C.2       7 UNK         0.5018 
     48 O          26.5949    2.7202  -10.8039 O.2       7 UNK        -0.5186 
     49 N          27.0726    1.3264   -9.0752 N.am      8 UNK        -0.4240 
     50 CA         26.7630    0.0625   -9.7409 C.3       8 UNK         0.0235 
     51 CB         25.7137   -0.6960   -8.9144 C.3       8 UNK        -0.2000 
     52 C          28.0213   -0.7912   -9.9564 C.2       8 UNK         0.4941 
     53 O          28.1916   -1.3334  -11.0488 O.2       8 UNK        -0.5273 
     54 N          28.8779   -0.9081   -8.9306 N.am      9 UNK        -0.4262 
     55 CA         30.0803   -1.7489   -8.9636 C.3       9 UNK         0.0264 
     56 CB         30.4737   -2.1547   -7.5323 C.3       9 UNK        -0.1955 
     57 C          31.2824   -1.1166   -9.6828 C.2       9 UNK         0.5031 
     58 O          32.1871   -1.8616  -10.0626 O.2       9 UNK        -0.5390 
     59 N          31.2959    0.2183   -9.8354 N.am      10 UNK        -0.4204 
     60 CA         32.4073    1.0230  -10.3643 C.3       10 UNK         0.0237 
     61 CB         32.6284    0.7470  -11.8678 C.3       10 UNK        -0.1985 
     62 C          33.6854    0.8579   -9.5169 C.2       10 UNK         0.4970 
     63 O          34.7448    0.5205  -10.0489 O.2       10 UNK        -0.4914 
     64 N          33.5417    1.0759   -8.2016 N.am      11 UNK        -0.4285 
     65 CA         34.5981    0.9234   -7.1853 C.3       11 UNK         0.1007 
     66 C          35.8380    1.8493   -7.3701 C.2       11 UNK         0.5703 
     67 N          35.7356    2.9634   -8.0858 N.am      11 UNK        -0.7361 
     68 O          36.9102    1.5486   -6.8508 O.2       11 UNK        -0.4986 
     69 C69        34.0400    1.0819   -5.7449 C.3       12 UNK        -0.0947 
     70 S70        32.6701   -0.0545   -5.3286 S.3       12 UNK        -0.2240 
     71 C71        33.2489   -0.7372   -3.7427 C.3       12 UNK         0.0194 
     72 H72        27.3739   -2.8371   -6.9799 H         1 UNK         0.0906 
     73 H73        26.5660   -1.7473   -5.8499 H         1 UNK         0.0906 
     74 H74        28.2476   -2.1978   -5.5837 H         1 UNK         0.0906 
     75 H75        28.0839   -3.2778   -3.5933 H         1 UNK         0.3140 
     76 H76        27.0481   -5.9320   -3.5029 H         1 UNK         0.1085 
     77 H77        28.1068   -4.1691   -1.2412 H         1 UNK         0.0836 
     78 H78        27.8345   -5.8896   -1.1397 H         1 UNK         0.0836 
     79 H79        30.4451   -4.5935   -0.3227 H         1 UNK         0.0731 
     80 H80        31.8122   -4.9236   -1.3459 H         1 UNK         0.0731 
     81 H81        32.5584   -3.3056   -3.0778 H         1 UNK         0.1312 
     82 H82        31.4527    0.7754   -2.3966 H         1 UNK         0.1406 
     83 H83        29.3511   -2.3720   -0.3823 H         1 UNK         0.1631 
     84 H84        29.9644    1.2842   -0.5128 H         1 UNK         0.0717 
     85 H85        29.2484   -0.0030    0.4143 H         1 UNK         0.0717 
     86 H86        27.8458    2.4861   -2.9452 H         1 UNK         0.0934 
     87 H87        29.3819    1.6655   -2.8994 H         1 UNK         0.0934 
     88 H88        28.1914   -0.3562   -4.0194 H         1 UNK         0.0739 
     89 H89        25.9518   -0.1688   -4.0211 H         1 UNK         0.3093 
     90 H90        23.8731    1.4809   -3.6937 H         1 UNK         0.0818 
     91 H91        22.2676    2.4383   -5.3237 H         1 UNK         0.0819 
     92 H92        23.6148    3.5304   -5.0755 H         1 UNK         0.0819 
     93 H93        23.5413    2.5588   -6.5389 H         1 UNK         0.0819 
     94 H94        23.0297    0.1842   -6.0602 H         1 UNK         0.3041 
     95 H95        21.9950   -2.0229   -5.2661 H         1 UNK         0.0784 
     96 H96        22.8981   -3.2971   -7.2329 H         1 UNK         0.0793 
     97 H97        23.1679   -1.5764   -7.4071 H         1 UNK         0.0793 
     98 H98        24.4970   -2.6289   -6.9407 H         1 UNK         0.0793 
     99 H99        24.1691   -3.9937   -4.8812 H         1 UNK         0.3024 
    100 H100       23.0393   -5.0378   -1.7308 H         1 UNK         0.1171 
    101 H101       22.5185   -6.5911   -4.3277 H         1 UNK         0.0786 
    102 H102       21.3352   -6.2741   -3.0665 H         1 UNK         0.0786 
    103 H103       22.7177   -7.3009   -2.7247 H         1 UNK         0.0786 
    104 H104       24.8589   -5.9545   -3.8630 H         1 UNK         0.2977 
    105 H105       29.5248    2.6389   -4.5751 H         1 UNK         0.3127 
    106 H106       30.9392    1.7857   -6.8248 H         1 UNK         0.0770 
    107 H107       30.5579    4.6372   -5.7620 H         1 UNK         0.0814 
    108 H108       31.8530    4.1013   -6.8229 H         1 UNK         0.0814 
    109 H109       31.7576    3.4835   -5.1820 H         1 UNK         0.0814 
    110 H110       27.8331    3.4257   -6.7463 H         1 UNK         0.2983 
    111 H111       27.9048    4.4479   -9.4468 H         1 UNK         0.0947 
    112 H112       25.4739    4.7908   -9.0864 H         1 UNK         0.0806 
    113 H113       26.3729    5.3557   -7.6875 H         1 UNK         0.0806 
    114 H114       25.5180    3.8146   -7.6271 H         1 UNK         0.0806 
    115 H115       27.4215    1.2687   -8.1243 H         1 UNK         0.3000 
    116 H116       26.3324    0.2459  -10.7278 H         1 UNK         0.0850 
    117 H117       26.0276   -0.8109   -7.8787 H         1 UNK         0.0810 
    118 H118       24.7614   -0.1658   -8.9131 H         1 UNK         0.0810 
    119 H119       25.5312   -1.6919   -9.3209 H         1 UNK         0.0810 
    120 H120       28.6731   -0.4382   -8.0490 H         1 UNK         0.3040 
    121 H121       29.8461   -2.6665   -9.5082 H         1 UNK         0.0766 
    122 H122       29.8016   -2.9171   -7.1442 H         1 UNK         0.0812 
    123 H123       30.4619   -1.3061   -6.8494 H         1 UNK         0.0812 
    124 H124       31.4763   -2.5840   -7.4967 H         1 UNK         0.0812 
    125 H125       30.5012    0.7486   -9.5008 H         1 UNK         0.3205 
    126 H126       32.1141    2.0690  -10.2720 H         1 UNK         0.0754 
    127 H127       31.7110    0.8997  -12.4363 H         1 UNK         0.0769 
    128 H128       32.9708   -0.2716  -12.0520 H         1 UNK         0.0769 
    129 H129       33.3808    1.4205  -12.2799 H         1 UNK         0.0769 
    130 H130       32.6330    1.3316   -7.8513 H         1 UNK         0.2981 
    131 H131       34.9697   -0.0984   -7.2820 H         1 UNK         0.0541 
    132 H132       34.8624    3.2177   -8.5174 H         1 UNK         0.3459 
    133 H133       36.5457    3.5520   -8.1995 H         1 UNK         0.3459 
    134 H134       33.6859    2.1016   -5.5888 H         1 UNK         0.0612 
    135 H135       34.8461    0.9349   -5.0238 H         1 UNK         0.0612 
    136 H136       33.9536   -1.5460   -3.9414 H         1 UNK         0.0624 
    137 H137       33.8028    0.0256   -3.1935 H         1 UNK         0.0624 
@<TRIPOS>BOND
     1    1    2 1    
     2    1   72 1    
     3    1   73 1    
     4    1   74 1    
     5    2    3 2    
     6    2    4 am   BACKBONE|DICT|INTERRES
     7    4    5 1    
     8    4   75 1    
     9    5    6 1    
    10    5   35 1    
    11    5   76 1    
    12    6    7 1    
    13    6   77 1    
    14    6   78 1    
    15    7    8 1    
    16    8    9 1    
    17    8   79 1    
    18    8   80 1    
    19    9   10 ar   
    20    9   14 ar   
    21   10   11 ar   
    22   10   81 1    
    23   11   12 ar   
    24   11   71 1    
    25   12   13 ar   
    26   12   82 1    
    27   13   14 ar   
    28   13   15 1    
    29   14   83 1    
    30   15   16 1    
    31   15   84 1    
    32   15   85 1    
    33   16   17 1    
    34   17   18 1    
    35   17   86 1    
    36   17   87 1    
    37   18   19 1    
    38   18   37 1    
    39   18   88 1    
    40   19   20 am   BACKBONE|DICT|INTERRES
    41   19   89 1    
    42   20   21 2    
    43   20   22 1    
    44   22   23 1    
    45   22   24 1    
    46   22   90 1    
    47   23   91 1    
    48   23   92 1    
    49   23   93 1    
    50   24   25 am   BACKBONE|DICT|INTERRES
    51   24   94 1    
    52   25   26 2    
    53   25   27 1    
    54   27   28 1    
    55   27   29 1    
    56   27   95 1    
    57   28   96 1    
    58   28   97 1    
    59   28   98 1    
    60   29   30 am   BACKBONE|DICT|INTERRES
    61   29   99 1    
    62   30   31 2    
    63   30   32 1    
    64   32   33 1    
    65   32   34 1    
    66   32  100 1    
    67   33  101 1    
    68   33  102 1    
    69   33  103 1    
    70   34   35 am   BACKBONE|DICT|INTERRES
    71   34  104 1    
    72   35   36 2    
    73   37   38 2    
    74   37   39 am   BACKBONE|DICT|INTERRES
    75   39   40 1    
    76   39  105 1    
    77   40   41 1    
    78   40   42 1    
    79   40  106 1    
    80   41  107 1    
    81   41  108 1    
    82   41  109 1    
    83   42   43 2    
    84   42   44 am   BACKBONE|DICT|INTERRES
    85   44   45 1    
    86   44  110 1    
    87   45   46 1    
    88   45   47 1    
    89   45  111 1    
    90   46  112 1    
    91   46  113 1    
    92   46  114 1    
    93   47   48 2    
    94   47   49 am   BACKBONE|DICT|INTERRES
    95   49   50 1    
    96   49  115 1    
    97   50   51 1    
    98   50   52 1    
    99   50  116 1    
   100   51  117 1    
   101   51  118 1    
   102   51  119 1    
   103   52   53 2    
   104   52   54 am   BACKBONE|DICT|INTERRES
   105   54   55 1    
   106   54  120 1    
   107   55   56 1    
   108   55   57 1    
   109   55  121 1    
   110   56  122 1    
   111   56  123 1    
   112   56  124 1    
   113   57   58 2    
   114   57   59 am   BACKBONE|DICT|INTERRES
   115   59   60 1    
   116   59  125 1    
   117   60   61 1    
   118   60   62 1    
   119   60  126 1    
   120   61  127 1    
   121   61  128 1    
   122   61  129 1    
   123   62   63 2    
   124   62   64 am   BACKBONE|DICT|INTERRES
   125   64   65 1    
   126   64  130 1    
   127   65   66 1    
   128   65   69 1    
   129   65  131 1    
   130   66   67 am   BACKBONE|DICT|INTERRES
   131   66   68 2    
   132   67  132 1    
   133   67  133 1    
   134   69   70 1    
   135   69  134 1    
   136   69  135 1    
   137   70   71 1    
   138   71  136 1    
   139   71  137 1    
@<TRIPOS>SUBSTRUCTURE
     1 UNK         1 GROUP             0       ****    0 ROOT    
