@<TRIPOS>MOLECULE
3R137
137   139    1
SMALL
USER_CHARGES


@<TRIPOS>ATOM
      1 CA         29.9748   -5.7419   -4.3869 C.3       0 UNK        -0.2020 
      2 C          29.0701   -5.6626   -3.1666 C.2       0 UNK         0.4855 
      3 O          28.8495   -6.6736   -2.4994 O.2       0 UNK        -0.5197 
      4 N          28.5368   -4.4723   -2.8737 N.am      1 UNK        -0.4892 
      5 CA         27.5942   -4.2124   -1.7891 C.3       1 UNK         0.0835 
      6 C6         28.2946   -4.1204   -0.3978 C.3       12 UNK        -0.0855 
      7 S7         28.8659   -2.4760    0.1746 S.3       12 UNK        -0.2931 
      8 C8         30.5700   -2.3829   -0.4635 C.3       12 UNK         0.0378 
      9 C9         30.6414   -1.5869   -1.7592 C.ar      12 UNK        -0.0802 
     10 C10        30.9618   -2.2156   -2.9654 C.ar      12 UNK        -0.0944 
     11 C11        31.0352   -1.4805   -4.1527 C.ar      12 UNK        -0.0787 
     12 C12        30.7777   -0.1073   -4.1302 C.ar      12 UNK        -0.0862 
     13 C13        30.4609    0.5359   -2.9289 C.ar      12 UNK        -0.0733 
     14 C14        30.4085   -0.2079   -1.7457 C.ar      12 UNK        -0.0832 
     15 C15        30.1814    2.0350   -2.9154 C.3       12 UNK         0.0240 
     16 S16        28.5291    2.4774   -2.2653 S.3       12 UNK        -0.2522 
     17 C17        27.4208    1.2134   -2.9761 C.3       12 UNK        -0.0967 
     18 CA         27.3815    1.2045   -4.5252 C.3       5 UNK         0.0660 
     19 N          27.1411   -0.1409   -5.0440 N.am      5 UNK        -0.4015 
     20 C          27.2469   -0.5093   -6.3272 C.2       4 UNK         0.4946 
     21 O          27.6364    0.2328   -7.2287 O.2       4 UNK        -0.5353 
     22 CA         26.8018   -1.9410   -6.6657 C.3       4 UNK         0.0277 
     23 CB         27.9462   -2.9410   -6.4406 C.3       4 UNK        -0.1981 
     24 N          25.6348   -2.3498   -5.8801 N.am      4 UNK        -0.4209 
     25 C          24.4028   -1.8438   -6.0337 C.2       3 UNK         0.4942 
     26 O          24.1055   -1.0118   -6.8903 O.2       3 UNK        -0.5208 
     27 CA         23.3346   -2.3150   -5.0322 C.3       3 UNK         0.0250 
     28 CB         22.7697   -3.6844   -5.4421 C.3       3 UNK        -0.1990 
     29 N          23.8340   -2.3774   -3.6546 N.am      3 UNK        -0.4232 
     30 C          24.2231   -1.3076   -2.9463 C.2       2 UNK         0.4993 
     31 O          24.1815   -0.1545   -3.3714 O.2       2 UNK        -0.5286 
     32 CA         24.8005   -1.5628   -1.5447 C.3       2 UNK         0.0209 
     33 CB         23.6725   -1.6425   -0.5040 C.3       2 UNK        -0.1931 
     34 N          25.6550   -2.7517   -1.4366 N.am      2 UNK        -0.4546 
     35 C          26.7464   -2.9876   -2.1787 C.2       1 UNK         0.5154 
     36 O          27.0888   -2.2854   -3.1360 O.2       1 UNK        -0.5181 
     37 C          26.3779    2.2275   -5.0922 C.2       5 UNK         0.5014 
     38 O          26.7981    3.2788   -5.5754 O.2       5 UNK        -0.5248 
     39 N          25.0804    1.8847   -5.0775 N.am      6 UNK        -0.4434 
     40 CA         23.9934    2.6783   -5.6610 C.3       6 UNK         0.0363 
     41 CB         22.6405    2.0472   -5.2960 C.3       6 UNK        -0.1936 
     42 C          24.1168    2.8474   -7.1853 C.2       6 UNK         0.5081 
     43 O          23.8174    3.9248   -7.7004 O.2       6 UNK        -0.5248 
     44 N          24.5879    1.7991   -7.8746 N.am      7 UNK        -0.4718 
     45 CA         24.9184    1.8196   -9.3030 C.3       7 UNK         0.0273 
     46 CB         25.0150    0.3716   -9.8116 C.3       7 UNK        -0.1935 
     47 C          26.2160    2.5870   -9.6289 C.2       7 UNK         0.5018 
     48 O          26.4612    2.8592  -10.8049 O.2       7 UNK        -0.5186 
     49 N          27.0206    2.9020   -8.6014 N.am      8 UNK        -0.4240 
     50 CA         28.3450    3.5302   -8.6495 C.3       8 UNK         0.0235 
     51 CB         28.2458    4.9895   -9.1429 C.3       8 UNK        -0.2000 
     52 C          29.3695    2.6886   -9.4347 C.2       8 UNK         0.4941 
     53 O          30.1544    3.2380  -10.2114 O.2       8 UNK        -0.5273 
     54 N          29.3336    1.3645   -9.2320 N.am      9 UNK        -0.4262 
     55 CA         30.2274    0.4058   -9.8778 C.3       9 UNK         0.0264 
     56 CB         29.6670   -1.0124   -9.6929 C.3       9 UNK        -0.1955 
     57 C          31.6489    0.4977   -9.3038 C.2       9 UNK         0.5031 
     58 O          31.8185    0.4924   -8.0815 O.2       9 UNK        -0.5390 
     59 N          32.6480    0.5290  -10.1928 N.am      10 UNK        -0.4204 
     60 CA         34.0715    0.5228   -9.8533 C.3       10 UNK         0.0237 
     61 CB         34.8586    1.2193  -10.9799 C.3       10 UNK        -0.1985 
     62 C          34.5520   -0.9162   -9.5942 C.2       10 UNK         0.4970 
     63 O          35.3113   -1.4675  -10.3931 O.2       10 UNK        -0.4914 
     64 N          34.0655   -1.5104   -8.4987 N.am      11 UNK        -0.4285 
     65 CA         34.3787   -2.8848   -8.0759 C.3       11 UNK         0.1007 
     66 C          35.8323   -3.1168   -7.5629 C.2       11 UNK         0.5703 
     67 N          36.6195   -2.0810   -7.2958 N.am      11 UNK        -0.7361 
     68 O          36.2566   -4.2612   -7.4196 O.2       11 UNK        -0.4986 
     69 C69        33.3121   -3.4361   -7.0932 C.3       12 UNK        -0.0947 
     70 S70        33.1895   -2.4899   -5.5362 S.3       12 UNK        -0.2240 
     71 C71        31.4039   -2.1692   -5.4562 C.3       12 UNK         0.0194 
     72 H72        30.9941   -5.4588   -4.1264 H         1 UNK         0.0906 
     73 H73        29.9961   -6.7586   -4.7788 H         1 UNK         0.0906 
     74 H74        29.6217   -5.0899   -5.1839 H         1 UNK         0.0906 
     75 H75        28.7049   -3.6556   -3.4487 H         1 UNK         0.3140 
     76 H76        26.9017   -5.0573   -1.7622 H         1 UNK         0.1085 
     77 H77        27.5860   -4.4626    0.3580 H         1 UNK         0.0836 
     78 H78        29.1197   -4.8312   -0.3327 H         1 UNK         0.0836 
     79 H79        31.1958   -1.8935    0.2842 H         1 UNK         0.0731 
     80 H80        30.9813   -3.3850   -0.5930 H         1 UNK         0.0731 
     81 H81        31.1714   -3.2755   -2.9792 H         1 UNK         0.1312 
     82 H82        30.8314    0.4593   -5.0505 H         1 UNK         0.1406 
     83 H83        30.1632    0.2846   -0.8143 H         1 UNK         0.1631 
     84 H84        30.2842    2.4554   -3.9169 H         1 UNK         0.0717 
     85 H85        30.9387    2.5288   -2.3052 H         1 UNK         0.0717 
     86 H86        27.7549    0.2470   -2.5967 H         1 UNK         0.0934 
     87 H87        26.4235    1.3470   -2.5529 H         1 UNK         0.0934 
     88 H88        28.3630    1.4883   -4.9061 H         1 UNK         0.0739 
     89 H89        26.8928   -0.8525   -4.3616 H         1 UNK         0.3093 
     90 H90        26.5265   -1.9666   -7.7221 H         1 UNK         0.0818 
     91 H91        28.3088   -2.9129   -5.4141 H         1 UNK         0.0819 
     92 H92        27.6328   -3.9614   -6.6616 H         1 UNK         0.0819 
     93 H93        28.7932   -2.7191   -7.0878 H         1 UNK         0.0819 
     94 H94        25.8023   -2.9854   -5.1136 H         1 UNK         0.3041 
     95 H95        22.5185   -1.5894   -5.0581 H         1 UNK         0.0784 
     96 H96        22.3789   -3.6548   -6.4603 H         1 UNK         0.0793 
     97 H97        23.5299   -4.4658   -5.4075 H         1 UNK         0.0793 
     98 H98        21.9486   -3.9853   -4.7912 H         1 UNK         0.0793 
     99 H99        23.9019   -3.2891   -3.2260 H         1 UNK         0.3024 
    100 H100       25.4250   -0.7008   -1.2996 H         1 UNK         0.1171 
    101 H101       23.0331   -0.7596   -0.5527 H         1 UNK         0.0786 
    102 H102       24.0704   -1.6943    0.5098 H         1 UNK         0.0786 
    103 H103       23.0367   -2.5146   -0.6612 H         1 UNK         0.0786 
    104 H104       25.4490   -3.3791   -0.6723 H         1 UNK         0.2977 
    105 H105       24.8048    1.0269   -4.5997 H         1 UNK         0.3127 
    106 H106       24.0373    3.6740   -5.2149 H         1 UNK         0.0770 
    107 H107       22.5512    1.0328   -5.6865 H         1 UNK         0.0814 
    108 H108       21.8139    2.6298   -5.7047 H         1 UNK         0.0814 
    109 H109       22.5029    2.0020   -4.2156 H         1 UNK         0.0814 
    110 H110       24.7346    0.9212   -7.3863 H         1 UNK         0.2983 
    111 H111       24.1054    2.3168   -9.8366 H         1 UNK         0.0947 
    112 H112       25.2067    0.3446  -10.8850 H         1 UNK         0.0806 
    113 H113       24.0886   -0.1751   -9.6340 H         1 UNK         0.0806 
    114 H114       25.8238   -0.1720   -9.3227 H         1 UNK         0.0806 
    115 H115       26.7204    2.6198   -7.6759 H         1 UNK         0.3000 
    116 H116       28.7045    3.5551   -7.6197 H         1 UNK         0.0850 
    117 H117       29.2078    5.4962   -9.0585 H         1 UNK         0.0810 
    118 H118       27.5277    5.5582   -8.5521 H         1 UNK         0.0810 
    119 H119       27.9403    5.0448  -10.1882 H         1 UNK         0.0810 
    120 H120       28.6876    0.9907   -8.5373 H         1 UNK         0.3040 
    121 H121       30.2511    0.6301  -10.9464 H         1 UNK         0.0766 
    122 H122       28.6525   -1.0955  -10.0834 H         1 UNK         0.0812 
    123 H123       29.6450   -1.2910   -8.6401 H         1 UNK         0.0812 
    124 H124       30.2808   -1.7486  -10.2133 H         1 UNK         0.0812 
    125 H125       32.4230    0.4955  -11.1771 H         1 UNK         0.3205 
    126 H126       34.2288    1.0955   -8.9364 H         1 UNK         0.0754 
    127 H127       35.9258    1.2404  -10.7545 H         1 UNK         0.0769 
    128 H128       34.5357    2.2529  -11.1069 H         1 UNK         0.0769 
    129 H129       34.7370    0.7106  -11.9372 H         1 UNK         0.0769 
    130 H130       33.4243   -0.9917   -7.9100 H         1 UNK         0.2981 
    131 H131       34.3048   -3.5001   -8.9747 H         1 UNK         0.0541 
    132 H132       36.2782   -1.1399   -7.4022 H         1 UNK         0.3459 
    133 H133       37.5590   -2.2455   -6.9706 H         1 UNK         0.3459 
    134 H134       32.3397   -3.4424   -7.5882 H         1 UNK         0.0612 
    135 H135       33.5188   -4.4787   -6.8453 H         1 UNK         0.0612 
    136 H136       30.8664   -3.1128   -5.5380 H         1 UNK         0.0624 
    137 H137       31.1047   -1.5627   -6.3127 H         1 UNK         0.0624 
@<TRIPOS>BOND
     1    1    2 1    
     2    1   72 1    
     3    1   73 1    
     4    1   74 1    
     5    2    3 2    
     6    2    4 am   BACKBONE|DICT|INTERRES
     7    4    5 1    
     8    4   75 1    
     9    5    6 1    
    10    5   35 1    
    11    5   76 1    
    12    6    7 1    
    13    6   77 1    
    14    6   78 1    
    15    7    8 1    
    16    8    9 1    
    17    8   79 1    
    18    8   80 1    
    19    9   10 ar   
    20    9   14 ar   
    21   10   11 ar   
    22   10   81 1    
    23   11   12 ar   
    24   11   71 1    
    25   12   13 ar   
    26   12   82 1    
    27   13   14 ar   
    28   13   15 1    
    29   14   83 1    
    30   15   16 1    
    31   15   84 1    
    32   15   85 1    
    33   16   17 1    
    34   17   18 1    
    35   17   86 1    
    36   17   87 1    
    37   18   19 1    
    38   18   37 1    
    39   18   88 1    
    40   19   20 am   BACKBONE|DICT|INTERRES
    41   19   89 1    
    42   20   21 2    
    43   20   22 1    
    44   22   23 1    
    45   22   24 1    
    46   22   90 1    
    47   23   91 1    
    48   23   92 1    
    49   23   93 1    
    50   24   25 am   BACKBONE|DICT|INTERRES
    51   24   94 1    
    52   25   26 2    
    53   25   27 1    
    54   27   28 1    
    55   27   29 1    
    56   27   95 1    
    57   28   96 1    
    58   28   97 1    
    59   28   98 1    
    60   29   30 am   BACKBONE|DICT|INTERRES
    61   29   99 1    
    62   30   31 2    
    63   30   32 1    
    64   32   33 1    
    65   32   34 1    
    66   32  100 1    
    67   33  101 1    
    68   33  102 1    
    69   33  103 1    
    70   34   35 am   BACKBONE|DICT|INTERRES
    71   34  104 1    
    72   35   36 2    
    73   37   38 2    
    74   37   39 am   BACKBONE|DICT|INTERRES
    75   39   40 1    
    76   39  105 1    
    77   40   41 1    
    78   40   42 1    
    79   40  106 1    
    80   41  107 1    
    81   41  108 1    
    82   41  109 1    
    83   42   43 2    
    84   42   44 am   BACKBONE|DICT|INTERRES
    85   44   45 1    
    86   44  110 1    
    87   45   46 1    
    88   45   47 1    
    89   45  111 1    
    90   46  112 1    
    91   46  113 1    
    92   46  114 1    
    93   47   48 2    
    94   47   49 am   BACKBONE|DICT|INTERRES
    95   49   50 1    
    96   49  115 1    
    97   50   51 1    
    98   50   52 1    
    99   50  116 1    
   100   51  117 1    
   101   51  118 1    
   102   51  119 1    
   103   52   53 2    
   104   52   54 am   BACKBONE|DICT|INTERRES
   105   54   55 1    
   106   54  120 1    
   107   55   56 1    
   108   55   57 1    
   109   55  121 1    
   110   56  122 1    
   111   56  123 1    
   112   56  124 1    
   113   57   58 2    
   114   57   59 am   BACKBONE|DICT|INTERRES
   115   59   60 1    
   116   59  125 1    
   117   60   61 1    
   118   60   62 1    
   119   60  126 1    
   120   61  127 1    
   121   61  128 1    
   122   61  129 1    
   123   62   63 2    
   124   62   64 am   BACKBONE|DICT|INTERRES
   125   64   65 1    
   126   64  130 1    
   127   65   66 1    
   128   65   69 1    
   129   65  131 1    
   130   66   67 am   BACKBONE|DICT|INTERRES
   131   66   68 2    
   132   67  132 1    
   133   67  133 1    
   134   69   70 1    
   135   69  134 1    
   136   69  135 1    
   137   70   71 1    
   138   71  136 1    
   139   71  137 1    
@<TRIPOS>SUBSTRUCTURE
     1 UNK         1 GROUP             0       ****    0 ROOT    
