@<TRIPOS>MOLECULE
3R137
137   139    1
SMALL
USER_CHARGES


@<TRIPOS>ATOM
      1 CA         25.9616   -5.0293    2.1870 C.3       0 UNK        -0.2020 
      2 C          27.0663   -5.0783    1.1351 C.2       0 UNK         0.4855 
      3 O          27.5120   -6.1662    0.7773 O.2       0 UNK        -0.5197 
      4 N          27.5466   -3.9416    0.6110 N.am      1 UNK        -0.4892 
      5 CA         27.0944   -2.5700    0.8876 C.3       1 UNK         0.0835 
      6 C6         28.1848   -1.5315    0.5041 C.3       12 UNK        -0.0855 
      7 S7         28.5361   -1.4236   -1.2900 S.3       12 UNK        -0.2931 
      8 C8         30.0604   -2.4015   -1.4314 C.3       12 UNK         0.0378 
      9 C9         30.3470   -2.7578   -2.8820 C.ar      12 UNK        -0.0802 
     10 C10        31.3794   -2.1238   -3.5775 C.ar      12 UNK        -0.0944 
     11 C11        31.6688   -2.4750   -4.9006 C.ar      12 UNK        -0.0787 
     12 C12        30.9122   -3.4744   -5.5262 C.ar      12 UNK        -0.0862 
     13 C13        29.8824   -4.1253   -4.8360 C.ar      12 UNK        -0.0733 
     14 C14        29.6004   -3.7538   -3.5178 C.ar      12 UNK        -0.0832 
     15 C15        29.1252   -5.2869   -5.4733 C.3       12 UNK         0.0240 
     16 S16        28.0773   -4.8056   -6.8831 S.3       12 UNK        -0.2522 
     17 C17        26.8363   -3.7131   -6.1063 C.3       12 UNK        -0.0967 
     18 CA         26.5522   -2.4568   -6.9661 C.3       5 UNK         0.0660 
     19 N          25.3664   -1.7260   -6.5140 N.am      5 UNK        -0.4015 
     20 C          24.7356   -0.7900   -7.2415 C.2       4 UNK         0.4946 
     21 O          25.0526   -0.4927   -8.3928 O.2       4 UNK        -0.5353 
     22 CA         23.5802   -0.0237   -6.5709 C.3       4 UNK         0.0277 
     23 CB         22.2505   -0.7651   -6.7803 C.3       4 UNK        -0.1981 
     24 N          23.7899    0.2098   -5.1410 N.am      4 UNK        -0.4209 
     25 C          24.8028    0.9198   -4.6240 C.2       3 UNK         0.4942 
     26 O          25.6207    1.5363   -5.3052 O.2       3 UNK        -0.5208 
     27 CA         24.9700    0.8991   -3.0943 C.3       3 UNK         0.0250 
     28 CB         24.3126    2.1385   -2.4676 C.3       3 UNK        -0.1990 
     29 N          24.4699   -0.3093   -2.4238 N.am      3 UNK        -0.4232 
     30 C          24.8257   -1.5688   -2.7144 C.2       2 UNK         0.4993 
     31 O          25.5517   -1.8788   -3.6615 O.2       2 UNK        -0.5286 
     32 CA         24.3159   -2.6653   -1.7678 C.3       2 UNK         0.0209 
     33 CB         23.9076   -3.9347   -2.5369 C.3       2 UNK        -0.1931 
     34 N          25.3868   -2.9946   -0.8326 N.am      2 UNK        -0.4546 
     35 C          25.7444   -2.2364    0.2135 C.2       1 UNK         0.5154 
     36 O          25.0697   -1.2955    0.6345 O.2       1 UNK        -0.5181 
     37 C          27.7681   -1.5179   -7.0362 C.2       5 UNK         0.5014 
     38 O          28.4635   -1.5086   -8.0521 O.2       5 UNK        -0.5248 
     39 N          27.9704   -0.7116   -5.9838 N.am      6 UNK        -0.4434 
     40 CA         29.0416    0.2823   -5.9177 C.3       6 UNK         0.0363 
     41 CB         29.0946    0.9135   -4.5191 C.3       6 UNK        -0.1936 
     42 C          28.9259    1.3556   -7.0119 C.2       6 UNK         0.5081 
     43 O          29.9318    1.6927   -7.6356 O.2       6 UNK        -0.5248 
     44 N          27.6974    1.8303   -7.2623 N.am      7 UNK        -0.4718 
     45 CA         27.3638    2.7575   -8.3445 C.3       7 UNK         0.0273 
     46 CB         25.9074    3.2241   -8.1935 C.3       7 UNK        -0.1935 
     47 C          27.6023    2.1634   -9.7431 C.2       7 UNK         0.5018 
     48 O          28.1469    2.8594  -10.6002 O.2       7 UNK        -0.5186 
     49 N          27.2122    0.8955   -9.9472 N.am      8 UNK        -0.4240 
     50 CA         27.4302    0.1563  -11.1946 C.3       8 UNK         0.0235 
     51 CB         26.6157   -1.1472  -11.1829 C.3       8 UNK        -0.2000 
     52 C          28.9159   -0.1336  -11.4634 C.2       8 UNK         0.4941 
     53 O          29.3655    0.0289  -12.5986 O.2       8 UNK        -0.5273 
     54 N          29.6507   -0.5440  -10.4202 N.am      9 UNK        -0.4262 
     55 CA         31.0939   -0.7892  -10.4653 C.3       9 UNK         0.0264 
     56 CB         31.5173   -1.5504   -9.1983 C.3       9 UNK        -0.1955 
     57 C          31.9242    0.4976  -10.6117 C.2       9 UNK         0.5031 
     58 O          33.0102    0.4437  -11.1905 O.2       9 UNK        -0.5390 
     59 N          31.4116    1.6112  -10.0654 N.am      10 UNK        -0.4204 
     60 CA         32.0473    2.9287   -9.9456 C.3       10 UNK         0.0237 
     61 CB         32.2883    3.5638  -11.3317 C.3       10 UNK        -0.1985 
     62 C          33.3092    2.8926   -9.0598 C.2       10 UNK         0.4970 
     63 O          34.2644    3.6293   -9.3143 O.2       10 UNK        -0.4914 
     64 N          33.2914    2.0214   -8.0439 N.am      11 UNK        -0.4285 
     65 CA         34.3713    1.8313   -7.0698 C.3       11 UNK         0.1007 
     66 C          34.4371    2.9586   -6.0005 C.2       11 UNK         0.5703 
     67 N          35.5526    3.0706   -5.2912 N.am      11 UNK        -0.7361 
     68 O          33.4945    3.7223   -5.7955 O.2       11 UNK        -0.4986 
     69 C69        34.3259    0.4076   -6.4514 C.3       12 UNK        -0.0947 
     70 S70        32.7463   -0.0065   -5.6387 S.3       12 UNK        -0.2240 
     71 C71        32.8432   -1.8254   -5.6249 C.3       12 UNK         0.0194 
     72 H72        26.2627   -4.4308    3.0460 H         1 UNK         0.0906 
     73 H73        25.0418   -4.6186    1.7725 H         1 UNK         0.0906 
     74 H74        25.7386   -6.0325    2.5501 H         1 UNK         0.0906 
     75 H75        28.2813   -4.0113   -0.0770 H         1 UNK         0.3140 
     76 H76        26.9337   -2.4744    1.9630 H         1 UNK         0.1085 
     77 H77        27.8824   -0.5380    0.8413 H         1 UNK         0.0836 
     78 H78        29.1091   -1.7459    1.0431 H         1 UNK         0.0836 
     79 H79        29.9745   -3.3188   -0.8482 H         1 UNK         0.0731 
     80 H80        30.8882   -1.8380   -0.9979 H         1 UNK         0.0731 
     81 H81        31.9702   -1.3631   -3.0858 H         1 UNK         0.1312 
     82 H82        31.1395   -3.7690   -6.5417 H         1 UNK         0.1406 
     83 H83        28.8114   -4.2549   -2.9738 H         1 UNK         0.1631 
     84 H84        28.5037   -5.7974   -4.7359 H         1 UNK         0.0717 
     85 H85        29.8487   -6.0266   -5.8189 H         1 UNK         0.0717 
     86 H86        25.9206   -4.2928   -5.9806 H         1 UNK         0.0934 
     87 H87        27.1530   -3.4336   -5.1003 H         1 UNK         0.0934 
     88 H88        26.3454   -2.7946   -7.9844 H         1 UNK         0.0739 
     89 H89        25.1171   -1.8483   -5.5364 H         1 UNK         0.3093 
     90 H90        23.5082    0.9515   -7.0569 H         1 UNK         0.0818 
     91 H91        21.4096   -0.1911   -6.3903 H         1 UNK         0.0819 
     92 H92        22.0613   -0.9319   -7.8418 H         1 UNK         0.0819 
     93 H93        22.2485   -1.7405   -6.2919 H         1 UNK         0.0819 
     94 H94        23.1629   -0.2576   -4.5029 H         1 UNK         0.3041 
     95 H95        26.0426    0.9465   -2.8946 H         1 UNK         0.0784 
     96 H96        24.6854    3.0542   -2.9295 H         1 UNK         0.0793 
     97 H97        23.2291    2.1278   -2.5928 H         1 UNK         0.0793 
     98 H98        24.5282    2.2065   -1.4011 H         1 UNK         0.0793 
     99 H99        23.9028   -0.1553   -1.6015 H         1 UNK         0.3024 
    100 H100       23.4455   -2.2989   -1.2184 H         1 UNK         0.1171 
    101 H101       23.1208   -3.7155   -3.2599 H         1 UNK         0.0786 
    102 H102       24.7445   -4.3669   -3.0874 H         1 UNK         0.0786 
    103 H103       23.5231   -4.6990   -1.8613 H         1 UNK         0.0786 
    104 H104       26.0262   -3.7211   -1.1201 H         1 UNK         0.2977 
    105 H105       27.3472   -0.7762   -5.1906 H         1 UNK         0.3127 
    106 H106       29.9744   -0.2554   -6.0857 H         1 UNK         0.0770 
    107 H107       28.1735    1.4430   -4.2753 H         1 UNK         0.0814 
    108 H108       29.9139    1.6303   -4.4502 H         1 UNK         0.0814 
    109 H109       29.2643    0.1573   -3.7533 H         1 UNK         0.0814 
    110 H110       26.9338    1.5456   -6.6522 H         1 UNK         0.2983 
    111 H111       28.0138    3.6292   -8.2424 H         1 UNK         0.0947 
    112 H112       25.6434    3.9405   -8.9726 H         1 UNK         0.0806 
    113 H113       25.7459    3.7141   -7.2331 H         1 UNK         0.0806 
    114 H114       25.2079    2.3906   -8.2643 H         1 UNK         0.0806 
    115 H115       26.7237    0.4039   -9.2052 H         1 UNK         0.3000 
    116 H116       27.0625    0.7755  -12.0157 H         1 UNK         0.0850 
    117 H117       26.7637   -1.7097  -12.1057 H         1 UNK         0.0810 
    118 H118       25.5481   -0.9453  -11.0944 H         1 UNK         0.0810 
    119 H119       26.9022   -1.7958  -10.3544 H         1 UNK         0.0810 
    120 H120       29.1837   -0.7294   -9.5322 H         1 UNK         0.3040 
    121 H121       31.3044   -1.4203  -11.3312 H         1 UNK         0.0766 
    122 H122       31.2939   -0.9806   -8.2953 H         1 UNK         0.0812 
    123 H123       32.5889   -1.7543   -9.2019 H         1 UNK         0.0812 
    124 H124       31.0030   -2.5084   -9.1205 H         1 UNK         0.0812 
    125 H125       30.5522    1.5141   -9.5321 H         1 UNK         0.3205 
    126 H126       31.3290    3.5577   -9.4176 H         1 UNK         0.0754 
    127 H127       32.6212    4.5979  -11.2349 H         1 UNK         0.0769 
    128 H128       31.3741    3.5725  -11.9255 H         1 UNK         0.0769 
    129 H129       33.0517    3.0288  -11.8973 H         1 UNK         0.0769 
    130 H130       32.4380    1.5133   -7.8573 H         1 UNK         0.2981 
    131 H131       35.3083    1.8979   -7.6265 H         1 UNK         0.0541 
    132 H132       36.3335    2.4515   -5.4438 H         1 UNK         0.3459 
    133 H133       35.6148    3.7909   -4.5889 H         1 UNK         0.3459 
    134 H134       35.1346    0.2683   -5.7321 H         1 UNK         0.0612 
    135 H135       34.5042   -0.3246   -7.2406 H         1 UNK         0.0612 
    136 H136       33.7679   -2.1275   -5.1314 H         1 UNK         0.0624 
    137 H137       32.9076   -2.1840   -6.6527 H         1 UNK         0.0624 
@<TRIPOS>BOND
     1    1    2 1    
     2    1   72 1    
     3    1   73 1    
     4    1   74 1    
     5    2    3 2    
     6    2    4 am   BACKBONE|DICT|INTERRES
     7    4    5 1    
     8    4   75 1    
     9    5    6 1    
    10    5   35 1    
    11    5   76 1    
    12    6    7 1    
    13    6   77 1    
    14    6   78 1    
    15    7    8 1    
    16    8    9 1    
    17    8   79 1    
    18    8   80 1    
    19    9   10 ar   
    20    9   14 ar   
    21   10   11 ar   
    22   10   81 1    
    23   11   12 ar   
    24   11   71 1    
    25   12   13 ar   
    26   12   82 1    
    27   13   14 ar   
    28   13   15 1    
    29   14   83 1    
    30   15   16 1    
    31   15   84 1    
    32   15   85 1    
    33   16   17 1    
    34   17   18 1    
    35   17   86 1    
    36   17   87 1    
    37   18   19 1    
    38   18   37 1    
    39   18   88 1    
    40   19   20 am   BACKBONE|DICT|INTERRES
    41   19   89 1    
    42   20   21 2    
    43   20   22 1    
    44   22   23 1    
    45   22   24 1    
    46   22   90 1    
    47   23   91 1    
    48   23   92 1    
    49   23   93 1    
    50   24   25 am   BACKBONE|DICT|INTERRES
    51   24   94 1    
    52   25   26 2    
    53   25   27 1    
    54   27   28 1    
    55   27   29 1    
    56   27   95 1    
    57   28   96 1    
    58   28   97 1    
    59   28   98 1    
    60   29   30 am   BACKBONE|DICT|INTERRES
    61   29   99 1    
    62   30   31 2    
    63   30   32 1    
    64   32   33 1    
    65   32   34 1    
    66   32  100 1    
    67   33  101 1    
    68   33  102 1    
    69   33  103 1    
    70   34   35 am   BACKBONE|DICT|INTERRES
    71   34  104 1    
    72   35   36 2    
    73   37   38 2    
    74   37   39 am   BACKBONE|DICT|INTERRES
    75   39   40 1    
    76   39  105 1    
    77   40   41 1    
    78   40   42 1    
    79   40  106 1    
    80   41  107 1    
    81   41  108 1    
    82   41  109 1    
    83   42   43 2    
    84   42   44 am   BACKBONE|DICT|INTERRES
    85   44   45 1    
    86   44  110 1    
    87   45   46 1    
    88   45   47 1    
    89   45  111 1    
    90   46  112 1    
    91   46  113 1    
    92   46  114 1    
    93   47   48 2    
    94   47   49 am   BACKBONE|DICT|INTERRES
    95   49   50 1    
    96   49  115 1    
    97   50   51 1    
    98   50   52 1    
    99   50  116 1    
   100   51  117 1    
   101   51  118 1    
   102   51  119 1    
   103   52   53 2    
   104   52   54 am   BACKBONE|DICT|INTERRES
   105   54   55 1    
   106   54  120 1    
   107   55   56 1    
   108   55   57 1    
   109   55  121 1    
   110   56  122 1    
   111   56  123 1    
   112   56  124 1    
   113   57   58 2    
   114   57   59 am   BACKBONE|DICT|INTERRES
   115   59   60 1    
   116   59  125 1    
   117   60   61 1    
   118   60   62 1    
   119   60  126 1    
   120   61  127 1    
   121   61  128 1    
   122   61  129 1    
   123   62   63 2    
   124   62   64 am   BACKBONE|DICT|INTERRES
   125   64   65 1    
   126   64  130 1    
   127   65   66 1    
   128   65   69 1    
   129   65  131 1    
   130   66   67 am   BACKBONE|DICT|INTERRES
   131   66   68 2    
   132   67  132 1    
   133   67  133 1    
   134   69   70 1    
   135   69  134 1    
   136   69  135 1    
   137   70   71 1    
   138   71  136 1    
   139   71  137 1    
@<TRIPOS>SUBSTRUCTURE
     1 UNK         1 GROUP             0       ****    0 ROOT    
