@<TRIPOS>MOLECULE
3R137
137   139    1
SMALL
USER_CHARGES


@<TRIPOS>ATOM
      1 CA         30.3485   -5.0026   -2.8950 C.3       0 UNK        -0.2020 
      2 C          29.5249   -4.5353   -1.7073 C.2       0 UNK         0.4855 
      3 O          29.0241   -5.3675   -0.9501 O.2       0 UNK        -0.5197 
      4 N          29.3780   -3.2134   -1.5318 N.am      1 UNK        -0.4892 
      5 CA         28.5754   -2.6224   -0.4512 C.3       1 UNK         0.0835 
      6 C6         28.9969   -1.1649   -0.1182 C.3       12 UNK        -0.0855 
      7 S7         28.4662    0.1095   -1.3186 S.3       12 UNK        -0.2931 
      8 C8         30.0416    0.6575   -2.0451 C.3       12 UNK         0.0378 
      9 C9         30.6691   -0.4257   -2.9062 C.ar      12 UNK        -0.0802 
     10 C10        31.8709   -1.0272   -2.5263 C.ar      12 UNK        -0.0944 
     11 C11        32.4504   -2.0215   -3.3207 C.ar      12 UNK        -0.0787 
     12 C12        31.8048   -2.4280   -4.4935 C.ar      12 UNK        -0.0862 
     13 C13        30.5949   -1.8400   -4.8751 C.ar      12 UNK        -0.0733 
     14 C14        30.0434   -0.8283   -4.0872 C.ar      12 UNK        -0.0832 
     15 C15        29.8771   -2.2807   -6.1396 C.3       12 UNK         0.0240 
     16 S16        28.2550   -3.0284   -5.7677 S.3       12 UNK        -0.2522 
     17 C17        27.5380   -3.0775   -7.4458 C.3       12 UNK        -0.0967 
     18 CA         26.5238   -1.9563   -7.8033 C.3       5 UNK         0.0660 
     19 N          25.2036   -2.1333   -7.1936 N.am      5 UNK        -0.4015 
     20 C          24.0570   -1.8954   -7.8522 C.2       4 UNK         0.4946 
     21 O          23.9995   -1.5917   -9.0447 O.2       4 UNK        -0.5353 
     22 CA         22.7402   -2.0007   -7.0644 C.3       4 UNK         0.0277 
     23 CB         22.2191   -3.4470   -7.0784 C.3       4 UNK        -0.1981 
     24 N          22.8366   -1.5328   -5.6830 N.am      4 UNK        -0.4209 
     25 C          23.1593   -0.2882   -5.3019 C.2       3 UNK         0.4942 
     26 O          23.4013    0.6349   -6.0798 O.2       3 UNK        -0.5208 
     27 CA         23.2723   -0.0524   -3.7853 C.3       3 UNK         0.0250 
     28 CB         21.9163    0.3839   -3.2082 C.3       3 UNK        -0.1990 
     29 N          23.7721   -1.2147   -3.0390 N.am      3 UNK        -0.4232 
     30 C          24.9407   -1.8307   -3.2677 C.2       2 UNK         0.4993 
     31 O          25.7210   -1.5143   -4.1700 O.2       2 UNK        -0.5286 
     32 CA         25.2611   -3.0427   -2.3909 C.3       2 UNK         0.0209 
     33 CB         25.0835   -4.3403   -3.1974 C.3       2 UNK        -0.1931 
     34 N          26.6488   -2.9421   -1.9545 N.am      2 UNK        -0.4546 
     35 C          27.0545   -2.7704   -0.6890 C.2       1 UNK         0.5154 
     36 O          26.2880   -2.7351    0.2758 O.2       1 UNK        -0.5181 
     37 C          27.0457   -0.5278   -7.5612 C.2       5 UNK         0.5014 
     38 O          27.6003    0.0568   -8.4915 O.2       5 UNK        -0.5248 
     39 N          26.8257    0.0269   -6.3551 N.am      6 UNK        -0.4434 
     40 CA         27.2871    1.3587   -5.9355 C.3       6 UNK         0.0363 
     41 CB         26.8682    1.6206   -4.4818 C.3       6 UNK        -0.1936 
     42 C          26.7992    2.5097   -6.8306 C.2       6 UNK         0.5081 
     43 O          27.5168    3.4963   -6.9967 O.2       6 UNK        -0.5248 
     44 N          25.5990    2.3576   -7.4062 N.am      7 UNK        -0.4718 
     45 CA         25.0278    3.2728   -8.3951 C.3       7 UNK         0.0273 
     46 CB         23.5477    2.9139   -8.6047 C.3       7 UNK        -0.1935 
     47 C          25.7729    3.2801   -9.7451 C.2       7 UNK         0.5018 
     48 O          25.6295    4.2501  -10.4910 O.2       7 UNK        -0.5186 
     49 N          26.5287    2.2148  -10.0480 N.am      8 UNK        -0.4240 
     50 CA         27.2767    2.0513  -11.2926 C.3       8 UNK         0.0235 
     51 CB         27.0608    0.6299  -11.8406 C.3       8 UNK        -0.2000 
     52 C          28.7729    2.3374  -11.1027 C.2       8 UNK         0.4941 
     53 O          29.3453    3.0500  -11.9291 O.2       8 UNK        -0.5273 
     54 N          29.3919    1.7811  -10.0514 N.am      9 UNK        -0.4262 
     55 CA         30.8350    1.8608   -9.8104 C.3       9 UNK         0.0264 
     56 CB         31.5726    0.8936  -10.7614 C.3       9 UNK        -0.1955 
     57 C          31.1683    1.5330   -8.3488 C.2       9 UNK         0.5031 
     58 O          30.3178    1.0269   -7.6188 O.2       9 UNK        -0.5390 
     59 N          32.4207    1.8010   -7.9607 N.am      10 UNK        -0.4204 
     60 CA         33.0148    1.3716   -6.6914 C.3       10 UNK         0.0237 
     61 CB         34.0688    2.4138   -6.2661 C.3       10 UNK        -0.1985 
     62 C          33.6097   -0.0478   -6.8177 C.2       10 UNK         0.4970 
     63 O          33.3095   -0.7619   -7.7782 O.2       10 UNK        -0.4914 
     64 N          34.4440   -0.4339   -5.8436 N.am      11 UNK        -0.4285 
     65 CA         35.1492   -1.7241   -5.7870 C.3       11 UNK         0.1007 
     66 C          36.0473   -1.9967   -7.0272 C.2       11 UNK         0.5703 
     67 N          36.1200   -3.2405   -7.4823 N.am      11 UNK        -0.7361 
     68 O          36.7135   -1.1018   -7.5452 O.2       11 UNK        -0.4986 
     69 C69        35.9900   -1.8724   -4.4900 C.3       12 UNK        -0.0947 
     70 S70        35.1320   -1.4628   -2.9323 S.3       12 UNK        -0.2240 
     71 C71        33.7616   -2.6615   -2.8871 C.3       12 UNK         0.0194 
     72 H72        30.0062   -4.5281   -3.8129 H         1 UNK         0.0906 
     73 H73        31.4014   -4.7682   -2.7446 H         1 UNK         0.0906 
     74 H74        30.2584   -6.0807   -3.0261 H         1 UNK         0.0906 
     75 H75        29.8104   -2.5602   -2.1741 H         1 UNK         0.3140 
     76 H76        28.7841   -3.2070    0.4481 H         1 UNK         0.1085 
     77 H77        30.0781   -1.1147    0.0186 H         1 UNK         0.0836 
     78 H78        28.5759   -0.8844    0.8490 H         1 UNK         0.0836 
     79 H79        29.8572    1.5386   -2.6615 H         1 UNK         0.0731 
     80 H80        30.7189    0.9747   -1.2505 H         1 UNK         0.0731 
     81 H81        32.3641   -0.7190   -1.6143 H         1 UNK         0.1312 
     82 H82        32.2359   -3.2087   -5.1044 H         1 UNK         0.1406 
     83 H83        29.1097   -0.3726   -4.3845 H         1 UNK         0.1631 
     84 H84        30.4807   -2.9944   -6.7022 H         1 UNK         0.0717 
     85 H85        29.7443   -1.4122   -6.7847 H         1 UNK         0.0717 
     86 H86        28.3532   -3.0677   -8.1718 H         1 UNK         0.0934 
     87 H87        27.0611   -4.0502   -7.5748 H         1 UNK         0.0934 
     88 H88        26.4052   -2.0356   -8.8865 H         1 UNK         0.0739 
     89 H89        25.1845   -2.3246   -6.1998 H         1 UNK         0.3093 
     90 H90        22.0074   -1.3683   -7.5703 H         1 UNK         0.0818 
     91 H91        21.2369   -3.5205   -6.6110 H         1 UNK         0.0819 
     92 H92        22.1164   -3.8142   -8.1006 H         1 UNK         0.0819 
     93 H93        22.8933   -4.1261   -6.5548 H         1 UNK         0.0819 
     94 H94        22.6552   -2.2135   -4.9603 H         1 UNK         0.3041 
     95 H95        23.9796    0.7617   -3.6293 H         1 UNK         0.0784 
     96 H96        21.5333    1.2602   -3.7335 H         1 UNK         0.0793 
     97 H97        21.1656   -0.4026   -3.2966 H         1 UNK         0.0793 
     98 H98        22.0002    0.6526   -2.1550 H         1 UNK         0.0793 
     99 H99        23.1858   -1.5474   -2.2867 H         1 UNK         0.3024 
    100 H100       24.5844   -3.0631   -1.5338 H         1 UNK         0.1171 
    101 H101       24.0545   -4.4517   -3.5414 H         1 UNK         0.0786 
    102 H102       25.3196   -5.2154   -2.5917 H         1 UNK         0.0786 
    103 H103       25.7280   -4.3620   -4.0777 H         1 UNK         0.0786 
    104 H104       27.3371   -2.8811   -2.6925 H         1 UNK         0.2977 
    105 H105       26.3834   -0.5389   -5.6332 H         1 UNK         0.3127 
    106 H106       28.3765    1.3463   -5.9765 H         1 UNK         0.0770 
    107 H107       27.1129    0.7832   -3.8308 H         1 UNK         0.0814 
    108 H108       25.7979    1.8039   -4.4039 H         1 UNK         0.0814 
    109 H109       27.3758    2.5008   -4.0855 H         1 UNK         0.0814 
    110 H110       25.0408    1.5486   -7.1543 H         1 UNK         0.2983 
    111 H111       25.0829    4.2853   -7.9894 H         1 UNK         0.0947 
    112 H112       23.0784    3.5847   -9.3256 H         1 UNK         0.0806 
    113 H113       22.9851    2.9945   -7.6743 H         1 UNK         0.0806 
    114 H114       23.4300    1.8956   -8.9784 H         1 UNK         0.0806 
    115 H115       26.6542    1.4839   -9.3530 H         1 UNK         0.3000 
    116 H116       26.9027    2.7492  -12.0451 H         1 UNK         0.0850 
    117 H117       27.5881    0.4935  -12.7857 H         1 UNK         0.0810 
    118 H118       26.0047    0.4349  -12.0274 H         1 UNK         0.0810 
    119 H119       27.4241   -0.1342  -11.1529 H         1 UNK         0.0810 
    120 H120       28.8696    1.2227   -9.3761 H         1 UNK         0.3040 
    121 H121       31.1665    2.8837  -10.0014 H         1 UNK         0.0766 
    122 H122       32.6517    0.9233  -10.6066 H         1 UNK         0.0812 
    123 H123       31.3960    1.1434  -11.8075 H         1 UNK         0.0812 
    124 H124       31.2518   -0.1373  -10.6053 H         1 UNK         0.0812 
    125 H125       33.0612    2.1805   -8.6427 H         1 UNK         0.3205 
    126 H126       32.2392    1.3328   -5.9228 H         1 UNK         0.0754 
    127 H127       34.4339    2.2269   -5.2558 H         1 UNK         0.0769 
    128 H128       33.6493    3.4203   -6.2651 H         1 UNK         0.0769 
    129 H129       34.9310    2.4131   -6.9346 H         1 UNK         0.0769 
    130 H130       34.6399    0.2006   -5.0848 H         1 UNK         0.2981 
    131 H131       34.3769   -2.4929   -5.7762 H         1 UNK         0.0541 
    132 H132       35.5913   -3.9858   -7.0569 H         1 UNK         0.3459 
    133 H133       36.7116   -3.4367   -8.2746 H         1 UNK         0.3459 
    134 H134       36.8708   -1.2291   -4.5399 H         1 UNK         0.0612 
    135 H135       36.3694   -2.8922   -4.4028 H         1 UNK         0.0612 
    136 H136       34.0019   -3.5325   -3.4983 H         1 UNK         0.0624 
    137 H137       33.6527   -3.0271   -1.8651 H         1 UNK         0.0624 
@<TRIPOS>BOND
     1    1    2 1    
     2    1   72 1    
     3    1   73 1    
     4    1   74 1    
     5    2    3 2    
     6    2    4 am   BACKBONE|DICT|INTERRES
     7    4    5 1    
     8    4   75 1    
     9    5    6 1    
    10    5   35 1    
    11    5   76 1    
    12    6    7 1    
    13    6   77 1    
    14    6   78 1    
    15    7    8 1    
    16    8    9 1    
    17    8   79 1    
    18    8   80 1    
    19    9   10 ar   
    20    9   14 ar   
    21   10   11 ar   
    22   10   81 1    
    23   11   12 ar   
    24   11   71 1    
    25   12   13 ar   
    26   12   82 1    
    27   13   14 ar   
    28   13   15 1    
    29   14   83 1    
    30   15   16 1    
    31   15   84 1    
    32   15   85 1    
    33   16   17 1    
    34   17   18 1    
    35   17   86 1    
    36   17   87 1    
    37   18   19 1    
    38   18   37 1    
    39   18   88 1    
    40   19   20 am   BACKBONE|DICT|INTERRES
    41   19   89 1    
    42   20   21 2    
    43   20   22 1    
    44   22   23 1    
    45   22   24 1    
    46   22   90 1    
    47   23   91 1    
    48   23   92 1    
    49   23   93 1    
    50   24   25 am   BACKBONE|DICT|INTERRES
    51   24   94 1    
    52   25   26 2    
    53   25   27 1    
    54   27   28 1    
    55   27   29 1    
    56   27   95 1    
    57   28   96 1    
    58   28   97 1    
    59   28   98 1    
    60   29   30 am   BACKBONE|DICT|INTERRES
    61   29   99 1    
    62   30   31 2    
    63   30   32 1    
    64   32   33 1    
    65   32   34 1    
    66   32  100 1    
    67   33  101 1    
    68   33  102 1    
    69   33  103 1    
    70   34   35 am   BACKBONE|DICT|INTERRES
    71   34  104 1    
    72   35   36 2    
    73   37   38 2    
    74   37   39 am   BACKBONE|DICT|INTERRES
    75   39   40 1    
    76   39  105 1    
    77   40   41 1    
    78   40   42 1    
    79   40  106 1    
    80   41  107 1    
    81   41  108 1    
    82   41  109 1    
    83   42   43 2    
    84   42   44 am   BACKBONE|DICT|INTERRES
    85   44   45 1    
    86   44  110 1    
    87   45   46 1    
    88   45   47 1    
    89   45  111 1    
    90   46  112 1    
    91   46  113 1    
    92   46  114 1    
    93   47   48 2    
    94   47   49 am   BACKBONE|DICT|INTERRES
    95   49   50 1    
    96   49  115 1    
    97   50   51 1    
    98   50   52 1    
    99   50  116 1    
   100   51  117 1    
   101   51  118 1    
   102   51  119 1    
   103   52   53 2    
   104   52   54 am   BACKBONE|DICT|INTERRES
   105   54   55 1    
   106   54  120 1    
   107   55   56 1    
   108   55   57 1    
   109   55  121 1    
   110   56  122 1    
   111   56  123 1    
   112   56  124 1    
   113   57   58 2    
   114   57   59 am   BACKBONE|DICT|INTERRES
   115   59   60 1    
   116   59  125 1    
   117   60   61 1    
   118   60   62 1    
   119   60  126 1    
   120   61  127 1    
   121   61  128 1    
   122   61  129 1    
   123   62   63 2    
   124   62   64 am   BACKBONE|DICT|INTERRES
   125   64   65 1    
   126   64  130 1    
   127   65   66 1    
   128   65   69 1    
   129   65  131 1    
   130   66   67 am   BACKBONE|DICT|INTERRES
   131   66   68 2    
   132   67  132 1    
   133   67  133 1    
   134   69   70 1    
   135   69  134 1    
   136   69  135 1    
   137   70   71 1    
   138   71  136 1    
   139   71  137 1    
@<TRIPOS>SUBSTRUCTURE
     1 UNK         1 GROUP             0       ****    0 ROOT    
