@<TRIPOS>MOLECULE
3R137
137   139    1
SMALL
USER_CHARGES


@<TRIPOS>ATOM
      1 CA         30.7032   -2.1037    2.0049 C.3       0 UNK        -0.2020 
      2 C          29.9332   -2.1895    0.6956 C.2       0 UNK         0.4855 
      3 O          29.6052   -1.1574    0.1095 O.2       0 UNK        -0.5197 
      4 N          29.6502   -3.4114    0.2283 N.am      1 UNK        -0.4892 
      5 CA         28.8871   -3.6838   -0.9947 C.3       1 UNK         0.0835 
      6 C6         29.0552   -5.1493   -1.4749 C.3       12 UNK        -0.0855 
      7 S7         30.8096   -5.6094   -1.7127 S.3       12 UNK        -0.2931 
      8 C8         30.9623   -5.7140   -3.5303 C.3       12 UNK         0.0378 
      9 C9         30.5482   -4.4401   -4.2617 C.ar      12 UNK        -0.0802 
     10 C10        30.9514   -3.1789   -3.8054 C.ar      12 UNK        -0.0944 
     11 C11        30.5194   -2.0188   -4.4527 C.ar      12 UNK        -0.0787 
     12 C12        29.7191   -2.1266   -5.5907 C.ar      12 UNK        -0.0862 
     13 C13        29.3620   -3.3780   -6.0957 C.ar      12 UNK        -0.0733 
     14 C14        29.7670   -4.5317   -5.4192 C.ar      12 UNK        -0.0832 
     15 C15        28.5827   -3.4729   -7.3988 C.3       12 UNK         0.0240 
     16 S16        26.9096   -4.1585   -7.1909 S.3       12 UNK        -0.2522 
     17 C17        26.1291   -2.9630   -6.0599 C.3       12 UNK        -0.0967 
     18 CA         25.3676   -1.8309   -6.7985 C.3       5 UNK         0.0660 
     19 N          24.2768   -1.2999   -5.9850 N.am      5 UNK        -0.4015 
     20 C          23.1197   -0.8187   -6.4617 C.2       4 UNK         0.4946 
     21 O          22.8079   -0.8342   -7.6531 O.2       4 UNK        -0.5353 
     22 CA         22.1255   -0.2307   -5.4412 C.3       4 UNK         0.0277 
     23 CB         21.0119   -1.2453   -5.1326 C.3       4 UNK        -0.1981 
     24 N          22.7633    0.1750   -4.1868 N.am      4 UNK        -0.4209 
     25 C          23.5433    1.2560   -4.0434 C.2       3 UNK         0.4942 
     26 O          23.7164    2.0964   -4.9251 O.2       3 UNK        -0.5208 
     27 CA         24.2798    1.4068   -2.6998 C.3       3 UNK         0.0250 
     28 CB         23.4928    2.3305   -1.7564 C.3       3 UNK        -0.1990 
     29 N          24.5425    0.1293   -2.0246 N.am      3 UNK        -0.4232 
     30 C          25.3475   -0.8346   -2.4923 C.2       2 UNK         0.4993 
     31 O          25.9536   -0.7705   -3.5670 O.2       2 UNK        -0.5286 
     32 CA         25.4368   -2.1133   -1.6579 C.3       2 UNK         0.0209 
     33 CB         24.4332   -3.1664   -2.1614 C.3       2 UNK        -0.1931 
     34 N          26.7973   -2.6338   -1.7465 N.am      2 UNK        -0.4546 
     35 C          27.4014   -3.3361   -0.7819 C.2       1 UNK         0.5154 
     36 O          26.8339   -3.7098    0.2487 O.2       1 UNK        -0.5181 
     37 C          26.2829   -0.6670   -7.2180 C.2       5 UNK         0.5014 
     38 O          26.3831   -0.3879   -8.4128 O.2       5 UNK        -0.5248 
     39 N          26.8918   -0.0075   -6.2160 N.am      6 UNK        -0.4434 
     40 CA         27.7662    1.1751   -6.2538 C.3       6 UNK         0.0363 
     41 CB         26.9543    2.4260   -5.8675 C.3       6 UNK        -0.1936 
     42 C          28.5886    1.3786   -7.5429 C.2       6 UNK         0.5081 
     43 O          29.7052    0.8666   -7.6543 O.2       6 UNK        -0.5248 
     44 N          28.0146    2.1254   -8.4959 N.am      7 UNK        -0.4718 
     45 CA         28.5980    2.4726   -9.7928 C.3       7 UNK         0.0273 
     46 CB         27.6279    3.3905  -10.5523 C.3       7 UNK        -0.1935 
     47 C          28.9900    1.2685  -10.6661 C.2       7 UNK         0.5018 
     48 O          29.9195    1.4007  -11.4620 O.2       7 UNK        -0.5186 
     49 N          28.3405    0.1093  -10.4776 N.am      8 UNK        -0.4240 
     50 CA         28.6582   -1.1377  -11.1836 C.3       8 UNK         0.0235 
     51 CB         27.5508   -2.1760  -10.9398 C.3       8 UNK        -0.2000 
     52 C          30.0522   -1.7135  -10.8591 C.2       8 UNK         0.4941 
     53 O          30.5657   -2.4928  -11.6627 O.2       8 UNK        -0.5273 
     54 N          30.6554   -1.3031   -9.7326 N.am      9 UNK        -0.4262 
     55 CA         32.0616   -1.5629   -9.4001 C.3       9 UNK         0.0264 
     56 CB         32.1433   -2.4313   -8.1346 C.3       9 UNK        -0.1955 
     57 C          32.8552   -0.2519   -9.2375 C.2       9 UNK         0.5031 
     58 O          33.9558   -0.2832   -8.6849 O.2       9 UNK        -0.5390 
     59 N          32.2965    0.8695   -9.7219 N.am      10 UNK        -0.4204 
     60 CA         32.8360    2.2329   -9.6729 C.3       10 UNK         0.0237 
     61 CB         34.0610    2.3612  -10.6042 C.3       10 UNK        -0.1985 
     62 C          33.1085    2.7554   -8.2460 C.2       10 UNK         0.4970 
     63 O          34.0661    3.5070   -8.0511 O.2       10 UNK        -0.4914 
     64 N          32.2651    2.3734   -7.2752 N.am      11 UNK        -0.4285 
     65 CA         32.3783    2.8185   -5.8732 C.3       11 UNK         0.1007 
     66 C          31.9696    4.3017   -5.6310 C.2       11 UNK         0.5703 
     67 N          31.3049    4.9728   -6.5650 N.am      11 UNK        -0.7361 
     68 O          32.2675    4.8551   -4.5752 O.2       11 UNK        -0.4986 
     69 C69        31.6235    1.8852   -4.8922 C.3       12 UNK        -0.0947 
     70 S70        32.1405    0.1427   -5.0112 S.3       12 UNK        -0.2240 
     71 C71        30.9051   -0.6445   -3.9320 C.3       12 UNK         0.0194 
     72 H72        30.1162   -1.5682    2.7506 H         1 UNK         0.0906 
     73 H73        30.9408   -3.0896    2.4041 H         1 UNK         0.0906 
     74 H74        31.6382   -1.5645    1.8554 H         1 UNK         0.0906 
     75 H75        29.9359   -4.2274    0.7504 H         1 UNK         0.3140 
     76 H76        29.2702   -3.0206   -1.7702 H         1 UNK         0.1085 
     77 H77        28.5088   -5.3118   -2.4062 H         1 UNK         0.0836 
     78 H78        28.6234   -5.8408   -0.7487 H         1 UNK         0.0836 
     79 H79        31.9992   -5.9393   -3.7826 H         1 UNK         0.0731 
     80 H80        30.3698   -6.5636   -3.8739 H         1 UNK         0.0731 
     81 H81        31.5765   -3.0998   -2.9264 H         1 UNK         0.1312 
     82 H82        29.4139   -1.2296   -6.1083 H         1 UNK         0.1406 
     83 H83        29.4770   -5.5005   -5.8032 H         1 UNK         0.1631 
     84 H84        29.1331   -4.1046   -8.0971 H         1 UNK         0.0717 
     85 H85        28.5151   -2.4925   -7.8700 H         1 UNK         0.0717 
     86 H86        25.4207   -3.5476   -5.4716 H         1 UNK         0.0934 
     87 H87        26.8514   -2.5869   -5.3349 H         1 UNK         0.0934 
     88 H88        24.9354   -2.2552   -7.7079 H         1 UNK         0.0739 
     89 H89        24.4827   -1.1817   -5.0016 H         1 UNK         0.3093 
     90 H90        21.6699    0.6509   -5.8976 H         1 UNK         0.0818 
     91 H91        20.2624   -0.8216   -4.4637 H         1 UNK         0.0819 
     92 H92        20.4948   -1.5458   -6.0451 H         1 UNK         0.0819 
     93 H93        21.4049   -2.1508   -4.6685 H         1 UNK         0.0819 
     94 H94        22.6468   -0.4397   -3.3946 H         1 UNK         0.3041 
     95 H95        25.2441    1.8743   -2.9076 H         1 UNK         0.0784 
     96 H96        23.3072    3.2987   -2.2240 H         1 UNK         0.0793 
     97 H97        22.5237    1.9070   -1.4893 H         1 UNK         0.0793 
     98 H98        24.0434    2.5197   -0.8347 H         1 UNK         0.0793 
     99 H99        24.0753   -0.0118   -1.1397 H         1 UNK         0.3024 
    100 H100       25.2115   -1.8654   -0.6176 H         1 UNK         0.1171 
    101 H101       23.4102   -2.7912   -2.1144 H         1 UNK         0.0786 
    102 H102       24.4715   -4.0707   -1.5537 H         1 UNK         0.0786 
    103 H103       24.6313   -3.4526   -3.1943 H         1 UNK         0.0786 
    104 H104       27.3171   -2.3181   -2.5559 H         1 UNK         0.2977 
    105 H105       26.6875   -0.3352   -5.2740 H         1 UNK         0.3127 
    106 H106       28.4967    1.0175   -5.4616 H         1 UNK         0.0770 
    107 H107       26.0779    2.5584   -6.5029 H         1 UNK         0.0814 
    108 H108       27.5585    3.3320   -5.9354 H         1 UNK         0.0814 
    109 H109       26.6025    2.3568   -4.8390 H         1 UNK         0.0814 
    110 H110       27.0783    2.4614   -8.3229 H         1 UNK         0.2983 
    111 H111       29.5128    3.0340   -9.5938 H         1 UNK         0.0947 
    112 H112       28.0455    3.6905  -11.5147 H         1 UNK         0.0806 
    113 H113       27.4228    4.3034   -9.9928 H         1 UNK         0.0806 
    114 H114       26.6762    2.8953  -10.7502 H         1 UNK         0.0806 
    115 H115       27.6057    0.0646   -9.7727 H         1 UNK         0.3000 
    116 H116       28.6616   -0.9088  -12.2516 H         1 UNK         0.0850 
    117 H117       27.7575   -3.1033  -11.4758 H         1 UNK         0.0810 
    118 H118       26.5846   -1.8104  -11.2876 H         1 UNK         0.0810 
    119 H119       27.4478   -2.4261   -9.8859 H         1 UNK         0.0810 
    120 H120       30.1636   -0.6675   -9.1122 H         1 UNK         0.3040 
    121 H121       32.5485   -2.1092  -10.2101 H         1 UNK         0.0766 
    122 H122       33.1693   -2.7460   -7.9407 H         1 UNK         0.0812 
    123 H123       31.5417   -3.3349   -8.2264 H         1 UNK         0.0812 
    124 H124       31.8071   -1.8816   -7.2576 H         1 UNK         0.0812 
    125 H125       31.4160    0.7826  -10.2178 H         1 UNK         0.3205 
    126 H126       32.0547    2.8773  -10.0778 H         1 UNK         0.0754 
    127 H127       34.3853    3.3992  -10.6877 H         1 UNK         0.0769 
    128 H128       33.8302    2.0152  -11.6118 H         1 UNK         0.0769 
    129 H129       34.9098    1.7832  -10.2370 H         1 UNK         0.0769 
    130 H130       31.4949    1.7465   -7.4859 H         1 UNK         0.2981 
    131 H131       33.4355    2.7610   -5.6069 H         1 UNK         0.0541 
    132 H132       31.0595    4.5319   -7.4354 H         1 UNK         0.3459 
    133 H133       31.0526    5.9334   -6.3949 H         1 UNK         0.3459 
    134 H134       30.5513    1.9493   -5.0745 H         1 UNK         0.0612 
    135 H135       31.7805    2.2043   -3.8601 H         1 UNK         0.0612 
    136 H136       31.3048   -0.7074   -2.9187 H         1 UNK         0.0624 
    137 H137       30.0071   -0.0294   -3.8681 H         1 UNK         0.0624 
@<TRIPOS>BOND
     1    1    2 1    
     2    1   72 1    
     3    1   73 1    
     4    1   74 1    
     5    2    3 2    
     6    2    4 am   BACKBONE|DICT|INTERRES
     7    4    5 1    
     8    4   75 1    
     9    5    6 1    
    10    5   35 1    
    11    5   76 1    
    12    6    7 1    
    13    6   77 1    
    14    6   78 1    
    15    7    8 1    
    16    8    9 1    
    17    8   79 1    
    18    8   80 1    
    19    9   10 ar   
    20    9   14 ar   
    21   10   11 ar   
    22   10   81 1    
    23   11   12 ar   
    24   11   71 1    
    25   12   13 ar   
    26   12   82 1    
    27   13   14 ar   
    28   13   15 1    
    29   14   83 1    
    30   15   16 1    
    31   15   84 1    
    32   15   85 1    
    33   16   17 1    
    34   17   18 1    
    35   17   86 1    
    36   17   87 1    
    37   18   19 1    
    38   18   37 1    
    39   18   88 1    
    40   19   20 am   BACKBONE|DICT|INTERRES
    41   19   89 1    
    42   20   21 2    
    43   20   22 1    
    44   22   23 1    
    45   22   24 1    
    46   22   90 1    
    47   23   91 1    
    48   23   92 1    
    49   23   93 1    
    50   24   25 am   BACKBONE|DICT|INTERRES
    51   24   94 1    
    52   25   26 2    
    53   25   27 1    
    54   27   28 1    
    55   27   29 1    
    56   27   95 1    
    57   28   96 1    
    58   28   97 1    
    59   28   98 1    
    60   29   30 am   BACKBONE|DICT|INTERRES
    61   29   99 1    
    62   30   31 2    
    63   30   32 1    
    64   32   33 1    
    65   32   34 1    
    66   32  100 1    
    67   33  101 1    
    68   33  102 1    
    69   33  103 1    
    70   34   35 am   BACKBONE|DICT|INTERRES
    71   34  104 1    
    72   35   36 2    
    73   37   38 2    
    74   37   39 am   BACKBONE|DICT|INTERRES
    75   39   40 1    
    76   39  105 1    
    77   40   41 1    
    78   40   42 1    
    79   40  106 1    
    80   41  107 1    
    81   41  108 1    
    82   41  109 1    
    83   42   43 2    
    84   42   44 am   BACKBONE|DICT|INTERRES
    85   44   45 1    
    86   44  110 1    
    87   45   46 1    
    88   45   47 1    
    89   45  111 1    
    90   46  112 1    
    91   46  113 1    
    92   46  114 1    
    93   47   48 2    
    94   47   49 am   BACKBONE|DICT|INTERRES
    95   49   50 1    
    96   49  115 1    
    97   50   51 1    
    98   50   52 1    
    99   50  116 1    
   100   51  117 1    
   101   51  118 1    
   102   51  119 1    
   103   52   53 2    
   104   52   54 am   BACKBONE|DICT|INTERRES
   105   54   55 1    
   106   54  120 1    
   107   55   56 1    
   108   55   57 1    
   109   55  121 1    
   110   56  122 1    
   111   56  123 1    
   112   56  124 1    
   113   57   58 2    
   114   57   59 am   BACKBONE|DICT|INTERRES
   115   59   60 1    
   116   59  125 1    
   117   60   61 1    
   118   60   62 1    
   119   60  126 1    
   120   61  127 1    
   121   61  128 1    
   122   61  129 1    
   123   62   63 2    
   124   62   64 am   BACKBONE|DICT|INTERRES
   125   64   65 1    
   126   64  130 1    
   127   65   66 1    
   128   65   69 1    
   129   65  131 1    
   130   66   67 am   BACKBONE|DICT|INTERRES
   131   66   68 2    
   132   67  132 1    
   133   67  133 1    
   134   69   70 1    
   135   69  134 1    
   136   69  135 1    
   137   70   71 1    
   138   71  136 1    
   139   71  137 1    
@<TRIPOS>SUBSTRUCTURE
     1 UNK         1 GROUP             0       ****    0 ROOT    
