@<TRIPOS>MOLECULE
3R137
137   139    1
SMALL
USER_CHARGES


@<TRIPOS>ATOM
      1 CA         27.6307   -4.1844    1.6296 C.3       0 UNK        -0.2020 
      2 C          27.4874   -3.5468    0.2568 C.2       0 UNK         0.4855 
      3 O          27.5564   -2.3242    0.1354 O.2       0 UNK        -0.5197 
      4 N          27.2681   -4.3572   -0.7863 N.am      1 UNK        -0.4892 
      5 CA         27.1277   -3.9350   -2.1880 C.3       1 UNK         0.0835 
      6 C6         27.6565   -5.0326   -3.1573 C.3       12 UNK        -0.0855 
      7 S7         28.7808   -4.3702   -4.4358 S.3       12 UNK        -0.2931 
      8 C8         30.3868   -4.3312   -3.5734 C.3       12 UNK         0.0378 
      9 C9         30.8768   -2.9005   -3.4041 C.ar      12 UNK        -0.0802 
     10 C10        31.8071   -2.3566   -4.2962 C.ar      12 UNK        -0.0944 
     11 C11        32.2527   -1.0395   -4.1407 C.ar      12 UNK        -0.0787 
     12 C12        31.7290   -0.2511   -3.1113 C.ar      12 UNK        -0.0862 
     13 C13        30.7965   -0.7846   -2.2173 C.ar      12 UNK        -0.0733 
     14 C14        30.4023   -2.1173   -2.3495 C.ar      12 UNK        -0.0832 
     15 C15        30.2133    0.0717   -1.1035 C.3       12 UNK         0.0240 
     16 S16        29.0202    1.2940   -1.7362 S.3       12 UNK        -0.2522 
     17 C17        27.7363    0.2515   -2.5179 C.3       12 UNK        -0.0967 
     18 CA         27.7419    0.3536   -4.0672 C.3       5 UNK         0.0660 
     19 N          26.9143   -0.6717   -4.7123 N.am      5 UNK        -0.4015 
     20 C          27.0414   -1.0316   -6.0006 C.2       4 UNK         0.4946 
     21 O          27.9695   -0.6608   -6.7204 O.2       4 UNK        -0.5353 
     22 CA         25.9279   -1.8940   -6.6277 C.3       4 UNK         0.0277 
     23 CB         26.3437   -3.3650   -6.7722 C.3       4 UNK        -0.1981 
     24 N          24.6552   -1.8180   -5.9083 N.am      4 UNK        -0.4209 
     25 C          23.8125   -0.7788   -5.9925 C.2       3 UNK         0.4942 
     26 O          24.0153    0.2037   -6.7021 O.2       3 UNK        -0.5208 
     27 CA         22.5625   -0.8047   -5.0954 C.3       3 UNK         0.0250 
     28 CB         21.4004   -1.5096   -5.8119 C.3       3 UNK        -0.1990 
     29 N          22.7879   -1.4324   -3.7907 N.am      3 UNK        -0.4232 
     30 C          23.7149   -1.0473   -2.9032 C.2       2 UNK         0.4993 
     31 O          24.4761   -0.0947   -3.0854 O.2       2 UNK        -0.5286 
     32 CA         23.8760   -1.8931   -1.6290 C.3       2 UNK         0.0209 
     33 CB         22.7485   -2.9259   -1.3999 C.3       2 UNK        -0.1931 
     34 N          25.1872   -2.5510   -1.5979 N.am      2 UNK        -0.4546 
     35 C          25.7090   -3.3976   -2.4999 C.2       1 UNK         0.5154 
     36 O          25.1191   -3.7381   -3.5269 O.2       1 UNK        -0.5181 
     37 C          27.2863    1.7452   -4.5469 C.2       5 UNK         0.5014 
     38 O          28.1187    2.5370   -4.9886 O.2       5 UNK        -0.5248 
     39 N          25.9690    2.0000   -4.4834 N.am      6 UNK        -0.4434 
     40 CA         25.3331    3.2578   -4.8884 C.3       6 UNK         0.0363 
     41 CB         23.8335    3.2058   -4.5562 C.3       6 UNK        -0.1936 
     42 C          25.5524    3.6094   -6.3706 C.2       6 UNK         0.5081 
     43 O          25.8574    4.7613   -6.6806 O.2       6 UNK        -0.5248 
     44 N          25.4201    2.6114   -7.2544 N.am      7 UNK        -0.4718 
     45 CA         25.6877    2.7341   -8.6900 C.3       7 UNK         0.0273 
     46 CB         24.9721    1.5932   -9.4322 C.3       7 UNK        -0.1935 
     47 C          27.1873    2.7312   -9.0400 C.2       7 UNK         0.5018 
     48 O          27.5264    3.1146  -10.1600 O.2       7 UNK        -0.5186 
     49 N          28.0385    2.2893   -8.0996 N.am      8 UNK        -0.4240 
     50 CA         29.4847    2.0731   -8.2173 C.3       8 UNK         0.0235 
     51 CB         30.2342    3.4130   -8.3691 C.3       8 UNK        -0.2000 
     52 C          29.8107    1.0709   -9.3379 C.2       8 UNK         0.4941 
     53 O          30.3271    1.4595  -10.3887 O.2       8 UNK        -0.5273 
     54 N          29.4497   -0.1986   -9.1064 N.am      9 UNK        -0.4262 
     55 CA         29.6235   -1.3297  -10.0225 C.3       9 UNK         0.0264 
     56 CB         28.8752   -2.5469   -9.4538 C.3       9 UNK        -0.1955 
     57 C          31.1060   -1.6444  -10.3032 C.2       9 UNK         0.5031 
     58 O          31.6773   -2.5496   -9.6900 O.2       9 UNK        -0.5390 
     59 N          31.6988   -0.8630  -11.2149 N.am      10 UNK        -0.4204 
     60 CA         33.0993   -0.8367  -11.6485 C.3       10 UNK         0.0237 
     61 CB         33.5615   -2.1894  -12.2287 C.3       10 UNK        -0.1985 
     62 C          34.0442   -0.3199  -10.5532 C.2       10 UNK         0.4970 
     63 O          34.6829    0.7134  -10.7549 O.2       10 UNK        -0.4914 
     64 N          34.1028   -1.0361   -9.4231 N.am      11 UNK        -0.4285 
     65 CA         34.8957   -0.7157   -8.2236 C.3       11 UNK         0.1007 
     66 C          36.4379   -0.6252   -8.4528 C.2       11 UNK         0.5703 
     67 N          36.9847   -1.2520   -9.4881 N.am      11 UNK        -0.7361 
     68 O          37.1595   -0.0155   -7.6666 O.2       11 UNK        -0.4986 
     69 C69        34.3047    0.4950   -7.4411 C.3       12 UNK        -0.0947 
     70 S70        32.7110    0.0797   -6.6534 S.3       12 UNK        -0.2240 
     71 C71        33.3432   -0.4892   -5.0455 C.3       12 UNK         0.0194 
     72 H72        26.8566   -3.8106    2.2991 H         1 UNK         0.0906 
     73 H73        27.5478   -5.2702    1.5864 H         1 UNK         0.0906 
     74 H74        28.6011   -3.9351    2.0579 H         1 UNK         0.0906 
     75 H75        27.1685   -5.3494   -0.6206 H         1 UNK         0.3140 
     76 H76        27.7551   -3.0583   -2.3254 H         1 UNK         0.1085 
     77 H77        26.8452   -5.5700   -3.6515 H         1 UNK         0.0836 
     78 H78        28.2012   -5.8071   -2.6150 H         1 UNK         0.0836 
     79 H79        31.1087   -4.9125   -4.1491 H         1 UNK         0.0731 
     80 H80        30.3171   -4.8156   -2.5984 H         1 UNK         0.0731 
     81 H81        32.1970   -2.9612   -5.1039 H         1 UNK         0.1312 
     82 H82        32.0540    0.7741   -2.9964 H         1 UNK         0.1406 
     83 H83        29.7163   -2.5395   -1.6313 H         1 UNK         0.1631 
     84 H84        31.0202    0.5974   -0.5910 H         1 UNK         0.0717 
     85 H85        29.7240   -0.5466   -0.3490 H         1 UNK         0.0717 
     86 H86        27.8880   -0.7805   -2.2090 H         1 UNK         0.0934 
     87 H87        26.7697    0.5382   -2.1019 H         1 UNK         0.0934 
     88 H88        28.7715    0.2046   -4.4030 H         1 UNK         0.0739 
     89 H89        26.0789   -0.9485   -4.2136 H         1 UNK         0.3093 
     90 H90        25.7747   -1.5035   -7.6363 H         1 UNK         0.0818 
     91 H91        27.3603   -3.4591   -7.1527 H         1 UNK         0.0819 
     92 H92        25.6878   -3.8911   -7.4656 H         1 UNK         0.0819 
     93 H93        26.3062   -3.8931   -5.8216 H         1 UNK         0.0819 
     94 H94        24.4505   -2.5717   -5.2609 H         1 UNK         0.3041 
     95 H95        22.2711    0.2311   -4.9113 H         1 UNK         0.0784 
     96 H96        21.2002   -1.0454   -6.7789 H         1 UNK         0.0793 
     97 H97        21.6165   -2.5631   -5.9945 H         1 UNK         0.0793 
     98 H98        20.4802   -1.4504   -5.2303 H         1 UNK         0.0793 
     99 H99        22.2277   -2.2437   -3.5725 H         1 UNK         0.3024 
    100 H100       23.8560   -1.1874   -0.7967 H         1 UNK         0.1171 
    101 H101       22.8778   -3.4330   -0.4436 H         1 UNK         0.0786 
    102 H102       21.7700   -2.4444   -1.3716 H         1 UNK         0.0786 
    103 H103       22.7223   -3.6945   -2.1732 H         1 UNK         0.0786 
    104 H104       25.7876   -2.3025   -0.8170 H         1 UNK         0.2977 
    105 H105       25.3602    1.2925   -4.0785 H         1 UNK         0.3127 
    106 H106       25.7851    4.0534   -4.2924 H         1 UNK         0.0770 
    107 H107       23.3212    2.4298   -5.1249 H         1 UNK         0.0814 
    108 H108       23.3499    4.1546   -4.7922 H         1 UNK         0.0814 
    109 H109       23.6665    3.0108   -3.4967 H         1 UNK         0.0814 
    110 H110       25.0772    1.7078   -6.9322 H         1 UNK         0.2983 
    111 H111       25.2731    3.6820   -9.0404 H         1 UNK         0.0947 
    112 H112       25.1044    1.6832  -10.5113 H         1 UNK         0.0806 
    113 H113       23.8999    1.6022   -9.2355 H         1 UNK         0.0806 
    114 H114       25.3585    0.6170   -9.1364 H         1 UNK         0.0806 
    115 H115       27.6427    2.0250   -7.2069 H         1 UNK         0.3000 
    116 H116       29.8092    1.6195   -7.2788 H         1 UNK         0.0850 
    117 H117       31.3126    3.2508   -8.3938 H         1 UNK         0.0810 
    118 H118       30.0238    4.0783   -7.5317 H         1 UNK         0.0810 
    119 H119       29.9625    3.9330   -9.2882 H         1 UNK         0.0810 
    120 H120       29.0035   -0.4099   -8.2136 H         1 UNK         0.3040 
    121 H121       29.1526   -1.0672  -10.9721 H         1 UNK         0.0766 
    122 H122       27.8092   -2.3432   -9.3526 H         1 UNK         0.0812 
    123 H123       29.2602   -2.8290   -8.4728 H         1 UNK         0.0812 
    124 H124       28.9801   -3.4132  -10.1082 H         1 UNK         0.0812 
    125 H125       31.1531   -0.0582  -11.5087 H         1 UNK         0.3205 
    126 H126       33.1374   -0.1100  -12.4618 H         1 UNK         0.0754 
    127 H127       34.5750   -2.1142  -12.6246 H         1 UNK         0.0769 
    128 H128       32.9172   -2.5064  -13.0488 H         1 UNK         0.0769 
    129 H129       33.5651   -2.9843  -11.4827 H         1 UNK         0.0769 
    130 H130       33.4781   -1.8337   -9.3490 H         1 UNK         0.2981 
    131 H131       34.7965   -1.5914   -7.5817 H         1 UNK         0.0541 
    132 H132       36.4105   -1.7693  -10.1339 H         1 UNK         0.3459 
    133 H133       37.9818   -1.2012   -9.6252 H         1 UNK         0.3459 
    134 H134       34.9840    0.8408   -6.6606 H         1 UNK         0.0612 
    135 H135       34.1578    1.3503   -8.1018 H         1 UNK         0.0612 
    136 H136       34.0962   -1.2617   -5.2079 H         1 UNK         0.0624 
    137 H137       33.8572    0.3378   -4.5528 H         1 UNK         0.0624 
@<TRIPOS>BOND
     1    1    2 1    
     2    1   72 1    
     3    1   73 1    
     4    1   74 1    
     5    2    3 2    
     6    2    4 am   BACKBONE|DICT|INTERRES
     7    4    5 1    
     8    4   75 1    
     9    5    6 1    
    10    5   35 1    
    11    5   76 1    
    12    6    7 1    
    13    6   77 1    
    14    6   78 1    
    15    7    8 1    
    16    8    9 1    
    17    8   79 1    
    18    8   80 1    
    19    9   10 ar   
    20    9   14 ar   
    21   10   11 ar   
    22   10   81 1    
    23   11   12 ar   
    24   11   71 1    
    25   12   13 ar   
    26   12   82 1    
    27   13   14 ar   
    28   13   15 1    
    29   14   83 1    
    30   15   16 1    
    31   15   84 1    
    32   15   85 1    
    33   16   17 1    
    34   17   18 1    
    35   17   86 1    
    36   17   87 1    
    37   18   19 1    
    38   18   37 1    
    39   18   88 1    
    40   19   20 am   BACKBONE|DICT|INTERRES
    41   19   89 1    
    42   20   21 2    
    43   20   22 1    
    44   22   23 1    
    45   22   24 1    
    46   22   90 1    
    47   23   91 1    
    48   23   92 1    
    49   23   93 1    
    50   24   25 am   BACKBONE|DICT|INTERRES
    51   24   94 1    
    52   25   26 2    
    53   25   27 1    
    54   27   28 1    
    55   27   29 1    
    56   27   95 1    
    57   28   96 1    
    58   28   97 1    
    59   28   98 1    
    60   29   30 am   BACKBONE|DICT|INTERRES
    61   29   99 1    
    62   30   31 2    
    63   30   32 1    
    64   32   33 1    
    65   32   34 1    
    66   32  100 1    
    67   33  101 1    
    68   33  102 1    
    69   33  103 1    
    70   34   35 am   BACKBONE|DICT|INTERRES
    71   34  104 1    
    72   35   36 2    
    73   37   38 2    
    74   37   39 am   BACKBONE|DICT|INTERRES
    75   39   40 1    
    76   39  105 1    
    77   40   41 1    
    78   40   42 1    
    79   40  106 1    
    80   41  107 1    
    81   41  108 1    
    82   41  109 1    
    83   42   43 2    
    84   42   44 am   BACKBONE|DICT|INTERRES
    85   44   45 1    
    86   44  110 1    
    87   45   46 1    
    88   45   47 1    
    89   45  111 1    
    90   46  112 1    
    91   46  113 1    
    92   46  114 1    
    93   47   48 2    
    94   47   49 am   BACKBONE|DICT|INTERRES
    95   49   50 1    
    96   49  115 1    
    97   50   51 1    
    98   50   52 1    
    99   50  116 1    
   100   51  117 1    
   101   51  118 1    
   102   51  119 1    
   103   52   53 2    
   104   52   54 am   BACKBONE|DICT|INTERRES
   105   54   55 1    
   106   54  120 1    
   107   55   56 1    
   108   55   57 1    
   109   55  121 1    
   110   56  122 1    
   111   56  123 1    
   112   56  124 1    
   113   57   58 2    
   114   57   59 am   BACKBONE|DICT|INTERRES
   115   59   60 1    
   116   59  125 1    
   117   60   61 1    
   118   60   62 1    
   119   60  126 1    
   120   61  127 1    
   121   61  128 1    
   122   61  129 1    
   123   62   63 2    
   124   62   64 am   BACKBONE|DICT|INTERRES
   125   64   65 1    
   126   64  130 1    
   127   65   66 1    
   128   65   69 1    
   129   65  131 1    
   130   66   67 am   BACKBONE|DICT|INTERRES
   131   66   68 2    
   132   67  132 1    
   133   67  133 1    
   134   69   70 1    
   135   69  134 1    
   136   69  135 1    
   137   70   71 1    
   138   71  136 1    
   139   71  137 1    
@<TRIPOS>SUBSTRUCTURE
     1 UNK         1 GROUP             0       ****    0 ROOT    
