@<TRIPOS>MOLECULE
3R137
137   139    1
SMALL
USER_CHARGES


@<TRIPOS>ATOM
      1 CA         26.5695   -7.6096   -5.7714 C.3       0 UNK        -0.2020 
      2 C          26.3692   -7.0157   -4.3850 C.2       0 UNK         0.4855 
      3 O          25.4461   -7.4164   -3.6747 O.2       0 UNK        -0.5197 
      4 N          27.2321   -6.0703   -3.9926 N.am      1 UNK        -0.4892 
      5 CA         27.1373   -5.3259   -2.7321 C.3       1 UNK         0.0835 
      6 C6         28.5106   -4.7252   -2.3436 C.3       12 UNK        -0.0855 
      7 S7         28.6993   -4.4902   -0.5425 S.3       12 UNK        -0.2931 
      8 C8         30.4968   -4.2140   -0.4039 C.3       12 UNK         0.0378 
      9 C9         30.9515   -3.0628   -1.2885 C.ar      12 UNK        -0.0802 
     10 C10        31.6197   -3.3194   -2.4885 C.ar      12 UNK        -0.0944 
     11 C11        31.9614   -2.2714   -3.3470 C.ar      12 UNK        -0.0787 
     12 C12        31.6475   -0.9555   -2.9911 C.ar      12 UNK        -0.0862 
     13 C13        30.9971   -0.6867   -1.7826 C.ar      12 UNK        -0.0733 
     14 C14        30.6595   -1.7440   -0.9320 C.ar      12 UNK        -0.0832 
     15 C15        30.6310    0.7370   -1.3946 C.3       12 UNK         0.0240 
     16 S16        28.8421    1.0096   -1.5862 S.3       12 UNK        -0.2522 
     17 C17        28.7735    2.2524   -2.9172 C.3       12 UNK        -0.0967 
     18 CA         29.0348    1.6907   -4.3379 C.3       5 UNK         0.0660 
     19 N          28.2400    0.5003   -4.6387 N.am      5 UNK        -0.4015 
     20 C          28.3317   -0.2162   -5.7670 C.2       4 UNK         0.4946 
     21 O          29.2315   -0.0565   -6.5937 O.2       4 UNK        -0.5353 
     22 CA         27.2174   -1.2461   -6.0486 C.3       4 UNK         0.0277 
     23 CB         27.7770   -2.6752   -5.9934 C.3       4 UNK        -0.1981 
     24 N          26.0183   -1.1526   -5.1966 N.am      4 UNK        -0.4209 
     25 C          25.2252   -0.0738   -5.0719 C.2       3 UNK         0.4942 
     26 O          25.4674    1.0110   -5.6039 O.2       3 UNK        -0.5208 
     27 CA         23.9543   -0.1879   -4.2116 C.3       3 UNK         0.0250 
     28 CB         22.7074   -0.2191   -5.1102 C.3       3 UNK        -0.1990 
     29 N          23.9254   -1.3441   -3.3152 N.am      3 UNK        -0.4232 
     30 C          24.6967   -1.5068   -2.2319 C.2       2 UNK         0.4993 
     31 O          25.5430   -0.6912   -1.8665 O.2       2 UNK        -0.5286 
     32 CA         24.5010   -2.8050   -1.4234 C.3       2 UNK         0.0209 
     33 CB         23.1322   -3.4851   -1.6572 C.3       2 UNK        -0.1931 
     34 N          25.5842   -3.7730   -1.6375 N.am      2 UNK        -0.4546 
     35 C          26.0295   -4.2497   -2.8092 C.2       1 UNK         0.5154 
     36 O          25.6101   -3.8697   -3.9073 O.2       1 UNK        -0.5181 
     37 C          28.8165    2.8120   -5.3778 C.2       5 UNK         0.5014 
     38 O          29.7821    3.5030   -5.7060 O.2       5 UNK        -0.5248 
     39 N          27.5778    2.9646   -5.8757 N.am      6 UNK        -0.4434 
     40 CA         27.1635    4.0316   -6.7919 C.3       6 UNK         0.0363 
     41 CB         26.1799    4.9634   -6.0660 C.3       6 UNK        -0.1936 
     42 C          26.5315    3.4997   -8.0891 C.2       6 UNK         0.5081 
     43 O          26.7486    4.0994   -9.1425 O.2       6 UNK        -0.5248 
     44 N          25.7647    2.4026   -8.0170 N.am      7 UNK        -0.4718 
     45 CA         25.1446    1.7456   -9.1710 C.3       7 UNK         0.0273 
     46 CB         23.9624    0.8847   -8.6901 C.3       7 UNK        -0.1935 
     47 C          26.2039    0.9099   -9.9053 C.2       7 UNK         0.5018 
     48 O          26.4760   -0.2142   -9.4835 O.2       7 UNK        -0.5186 
     49 N          26.8147    1.5100  -10.9401 N.am      8 UNK        -0.4240 
     50 CA         28.0944    1.1253  -11.5548 C.3       8 UNK         0.0235 
     51 CB         28.0561   -0.2944  -12.1627 C.3       8 UNK        -0.2000 
     52 C          29.2114    1.3227  -10.5151 C.2       8 UNK         0.4941 
     53 O          29.7087    0.3497   -9.9486 O.2       8 UNK        -0.5273 
     54 N          29.4812    2.6067  -10.2319 N.am      9 UNK        -0.4262 
     55 CA         30.2061    3.1320   -9.0723 C.3       9 UNK         0.0264 
     56 CB         30.4374    4.6401   -9.2573 C.3       9 UNK        -0.1955 
     57 C          31.5228    2.4235   -8.7244 C.2       9 UNK         0.5031 
     58 O          32.3053    2.0956   -9.6206 O.2       9 UNK        -0.5390 
     59 N          31.7275    2.2212   -7.4147 N.am      10 UNK        -0.4204 
     60 CA         32.8408    1.5018   -6.7844 C.3       10 UNK         0.0237 
     61 CB         34.1263    2.3529   -6.8468 C.3       10 UNK        -0.1985 
     62 C          33.0400    0.0747   -7.3388 C.2       10 UNK         0.4970 
     63 O          34.1798   -0.3804   -7.4517 O.2       10 UNK        -0.4914 
     64 N          31.9309   -0.5950   -7.6826 N.am      11 UNK        -0.4285 
     65 CA         31.8764   -1.9092   -8.3436 C.3       11 UNK         0.1007 
     66 C          32.4991   -1.9448   -9.7754 C.2       11 UNK         0.5703 
     67 N          32.7229   -0.8157  -10.4389 N.am      11 UNK        -0.7361 
     68 O          32.7645   -3.0184  -10.3124 O.2       11 UNK        -0.4986 
     69 C69        32.3814   -3.0686   -7.4341 C.3       12 UNK        -0.0947 
     70 S70        31.4363   -3.1920   -5.8803 S.3       12 UNK        -0.2240 
     71 C71        32.6421   -2.5701   -4.6714 C.3       12 UNK         0.0194 
     72 H72        27.4274   -7.1735   -6.2828 H         1 UNK         0.0906 
     73 H73        26.7282   -8.6853   -5.7000 H         1 UNK         0.0906 
     74 H74        25.6856   -7.4352   -6.3843 H         1 UNK         0.0906 
     75 H75        27.9464   -5.7574   -4.6339 H         1 UNK         0.3140 
     76 H76        26.8437   -6.0418   -1.9604 H         1 UNK         0.1085 
     77 H77        28.6926   -3.7784   -2.8559 H         1 UNK         0.0836 
     78 H78        29.3116   -5.3955   -2.6606 H         1 UNK         0.0836 
     79 H79        31.0236   -5.1338   -0.6632 H         1 UNK         0.0731 
     80 H80        30.7474   -3.9992    0.6359 H         1 UNK         0.0731 
     81 H81        31.8421   -4.3380   -2.7761 H         1 UNK         0.1312 
     82 H82        31.8994   -0.1445   -3.6597 H         1 UNK         0.1406 
     83 H83        30.1320   -1.5427   -0.0092 H         1 UNK         0.1631 
     84 H84        31.1970    1.4587   -1.9853 H         1 UNK         0.0717 
     85 H85        30.9061    0.9124   -0.3536 H         1 UNK         0.0717 
     86 H86        27.7829    2.7098   -2.8664 H         1 UNK         0.0934 
     87 H87        29.4804    3.0520   -2.6856 H         1 UNK         0.0934 
     88 H88        30.0831    1.3929   -4.3977 H         1 UNK         0.0739 
     89 H89        27.5003    0.2805   -3.9869 H         1 UNK         0.3093 
     90 H90        26.8841   -1.0606   -7.0700 H         1 UNK         0.0818 
     91 H91        28.1684   -2.9140   -5.0050 H         1 UNK         0.0819 
     92 H92        27.0165   -3.4137   -6.2469 H         1 UNK         0.0819 
     93 H93        28.5921   -2.7973   -6.7074 H         1 UNK         0.0819 
     94 H94        25.7488   -2.0055   -4.7140 H         1 UNK         0.3041 
     95 H95        23.9062    0.7122   -3.5950 H         1 UNK         0.0784 
     96 H96        22.6967   -1.0980   -5.7563 H         1 UNK         0.0793 
     97 H97        22.6689    0.6599   -5.7553 H         1 UNK         0.0793 
     98 H98        21.7910   -0.2230   -4.5197 H         1 UNK         0.0793 
     99 H99        23.2891   -2.0899   -3.5578 H         1 UNK         0.3024 
    100 H100       24.5460   -2.5106   -0.3733 H         1 UNK         0.1171 
    101 H101       22.9849   -4.3093   -0.9589 H         1 UNK         0.0786 
    102 H102       22.3099   -2.7856   -1.4987 H         1 UNK         0.0786 
    103 H103       23.0361   -3.8928   -2.6642 H         1 UNK         0.0786 
    104 H104       26.0532   -4.0901   -0.7990 H         1 UNK         0.2977 
    105 H105       26.8577    2.2974   -5.6074 H         1 UNK         0.3127 
    106 H106       28.0285    4.6292   -7.0871 H         1 UNK         0.0770 
    107 H107       25.2901    4.4287   -5.7309 H         1 UNK         0.0814 
    108 H108       25.8497    5.7710   -6.7211 H         1 UNK         0.0814 
    109 H109       26.6429    5.4238   -5.1931 H         1 UNK         0.0814 
    110 H110       25.6421    1.9335   -7.1216 H         1 UNK         0.2983 
    111 H111       24.7511    2.5045   -9.8512 H         1 UNK         0.0947 
    112 H112       23.4731    0.3929   -9.5315 H         1 UNK         0.0806 
    113 H113       23.2105    1.4916   -8.1857 H         1 UNK         0.0806 
    114 H114       24.2806    0.1040   -7.9984 H         1 UNK         0.0806 
    115 H115       26.5037    2.4461  -11.1636 H         1 UNK         0.3000 
    116 H116       28.2782    1.8238  -12.3730 H         1 UNK         0.0850 
    117 H117       28.9803   -0.5039  -12.7023 H         1 UNK         0.0810 
    118 H118       27.2336   -0.4011  -12.8696 H         1 UNK         0.0810 
    119 H119       27.9495   -1.0701  -11.4043 H         1 UNK         0.0810 
    120 H120       28.9977    3.3062  -10.7757 H         1 UNK         0.3040 
    121 H121       29.5251    2.9918   -8.2350 H         1 UNK         0.0766 
    122 H122       29.4965    5.1752   -9.3877 H         1 UNK         0.0812 
    123 H123       31.0669    4.8451  -10.1241 H         1 UNK         0.0812 
    124 H124       30.9319    5.0693   -8.3845 H         1 UNK         0.0812 
    125 H125       31.0281    2.5906   -6.7729 H         1 UNK         0.3205 
    126 H126       32.5712    1.3823   -5.7343 H         1 UNK         0.0754 
    127 H127       34.4783    2.4748   -7.8719 H         1 UNK         0.0769 
    128 H128       34.9331    1.8900   -6.2772 H         1 UNK         0.0769 
    129 H129       33.9650    3.3461   -6.4275 H         1 UNK         0.0769 
    130 H130       31.0233   -0.1637   -7.5305 H         1 UNK         0.2981 
    131 H131       30.8137   -2.0824   -8.5168 H         1 UNK         0.0541 
    132 H132       32.4712    0.0806  -10.0351 H         1 UNK         0.3459 
    133 H133       33.1159   -0.8572  -11.3647 H         1 UNK         0.3459 
    134 H134       33.4458   -2.9643   -7.2192 H         1 UNK         0.0612 
    135 H135       32.2706   -4.0274   -7.9427 H         1 UNK         0.0612 
    136 H136       33.4287   -3.3126   -4.5299 H         1 UNK         0.0624 
    137 H137       33.1272   -1.6734   -5.0560 H         1 UNK         0.0624 
@<TRIPOS>BOND
     1    1    2 1    
     2    1   72 1    
     3    1   73 1    
     4    1   74 1    
     5    2    3 2    
     6    2    4 am   BACKBONE|DICT|INTERRES
     7    4    5 1    
     8    4   75 1    
     9    5    6 1    
    10    5   35 1    
    11    5   76 1    
    12    6    7 1    
    13    6   77 1    
    14    6   78 1    
    15    7    8 1    
    16    8    9 1    
    17    8   79 1    
    18    8   80 1    
    19    9   10 ar   
    20    9   14 ar   
    21   10   11 ar   
    22   10   81 1    
    23   11   12 ar   
    24   11   71 1    
    25   12   13 ar   
    26   12   82 1    
    27   13   14 ar   
    28   13   15 1    
    29   14   83 1    
    30   15   16 1    
    31   15   84 1    
    32   15   85 1    
    33   16   17 1    
    34   17   18 1    
    35   17   86 1    
    36   17   87 1    
    37   18   19 1    
    38   18   37 1    
    39   18   88 1    
    40   19   20 am   BACKBONE|DICT|INTERRES
    41   19   89 1    
    42   20   21 2    
    43   20   22 1    
    44   22   23 1    
    45   22   24 1    
    46   22   90 1    
    47   23   91 1    
    48   23   92 1    
    49   23   93 1    
    50   24   25 am   BACKBONE|DICT|INTERRES
    51   24   94 1    
    52   25   26 2    
    53   25   27 1    
    54   27   28 1    
    55   27   29 1    
    56   27   95 1    
    57   28   96 1    
    58   28   97 1    
    59   28   98 1    
    60   29   30 am   BACKBONE|DICT|INTERRES
    61   29   99 1    
    62   30   31 2    
    63   30   32 1    
    64   32   33 1    
    65   32   34 1    
    66   32  100 1    
    67   33  101 1    
    68   33  102 1    
    69   33  103 1    
    70   34   35 am   BACKBONE|DICT|INTERRES
    71   34  104 1    
    72   35   36 2    
    73   37   38 2    
    74   37   39 am   BACKBONE|DICT|INTERRES
    75   39   40 1    
    76   39  105 1    
    77   40   41 1    
    78   40   42 1    
    79   40  106 1    
    80   41  107 1    
    81   41  108 1    
    82   41  109 1    
    83   42   43 2    
    84   42   44 am   BACKBONE|DICT|INTERRES
    85   44   45 1    
    86   44  110 1    
    87   45   46 1    
    88   45   47 1    
    89   45  111 1    
    90   46  112 1    
    91   46  113 1    
    92   46  114 1    
    93   47   48 2    
    94   47   49 am   BACKBONE|DICT|INTERRES
    95   49   50 1    
    96   49  115 1    
    97   50   51 1    
    98   50   52 1    
    99   50  116 1    
   100   51  117 1    
   101   51  118 1    
   102   51  119 1    
   103   52   53 2    
   104   52   54 am   BACKBONE|DICT|INTERRES
   105   54   55 1    
   106   54  120 1    
   107   55   56 1    
   108   55   57 1    
   109   55  121 1    
   110   56  122 1    
   111   56  123 1    
   112   56  124 1    
   113   57   58 2    
   114   57   59 am   BACKBONE|DICT|INTERRES
   115   59   60 1    
   116   59  125 1    
   117   60   61 1    
   118   60   62 1    
   119   60  126 1    
   120   61  127 1    
   121   61  128 1    
   122   61  129 1    
   123   62   63 2    
   124   62   64 am   BACKBONE|DICT|INTERRES
   125   64   65 1    
   126   64  130 1    
   127   65   66 1    
   128   65   69 1    
   129   65  131 1    
   130   66   67 am   BACKBONE|DICT|INTERRES
   131   66   68 2    
   132   67  132 1    
   133   67  133 1    
   134   69   70 1    
   135   69  134 1    
   136   69  135 1    
   137   70   71 1    
   138   71  136 1    
   139   71  137 1    
@<TRIPOS>SUBSTRUCTURE
     1 UNK         1 GROUP             0       ****    0 ROOT    
