@<TRIPOS>MOLECULE
3R137
137   139    1
SMALL
USER_CHARGES


@<TRIPOS>ATOM
      1 CA         25.6659   -6.5383   -3.6313 C.3       0 UNK        -0.2020 
      2 C          25.4184   -5.3118   -2.7663 C.2       0 UNK         0.4855 
      3 O          24.3075   -4.7828   -2.7550 O.2       0 UNK        -0.5197 
      4 N          26.4438   -4.8651   -2.0325 N.am      1 UNK        -0.4892 
      5 CA         26.4201   -3.6728   -1.1800 C.3       1 UNK         0.0835 
      6 C6         27.5437   -3.6970   -0.0997 C.3       12 UNK        -0.0855 
      7 S7         29.1839   -4.2824   -0.6562 S.3       12 UNK        -0.2931 
      8 C8         29.8912   -2.8007   -1.4612 C.3       12 UNK         0.0378 
      9 C9         30.4071   -3.0596   -2.8774 C.ar      12 UNK        -0.0802 
     10 C10        31.4725   -2.2999   -3.3689 C.ar      12 UNK        -0.0944 
     11 C11        31.9659   -2.5073   -4.6619 C.ar      12 UNK        -0.0787 
     12 C12        31.3895   -3.4954   -5.4683 C.ar      12 UNK        -0.0862 
     13 C13        30.3309   -4.2717   -4.9884 C.ar      12 UNK        -0.0733 
     14 C14        29.8390   -4.0368   -3.7030 C.ar      12 UNK        -0.0832 
     15 C15        29.7555   -5.4104   -5.8225 C.3       12 UNK         0.0240 
     16 S16        28.5663   -4.8572   -7.0840 S.3       12 UNK        -0.2522 
     17 C17        27.2079   -4.1522   -6.0832 C.3       12 UNK        -0.0967 
     18 CA         26.6660   -2.8223   -6.6566 C.3       5 UNK         0.0660 
     19 N          25.4884   -2.3486   -5.9272 N.am      5 UNK        -0.4015 
     20 C          24.3952   -1.8632   -6.5300 C.2       4 UNK         0.4946 
     21 O          24.2276   -1.8548   -7.7508 O.2       4 UNK        -0.5353 
     22 CA         23.2943   -1.2701   -5.6334 C.3       4 UNK         0.0277 
     23 CB         22.5316   -2.3841   -4.8985 C.3       4 UNK        -0.1981 
     24 N          23.7151   -0.2478   -4.6663 N.am      4 UNK        -0.4209 
     25 C          24.5541    0.7801   -4.8717 C.2       3 UNK         0.4942 
     26 O          25.2590    0.9151   -5.8687 O.2       3 UNK        -0.5208 
     27 CA         24.6297    1.8589   -3.7736 C.3       3 UNK         0.0250 
     28 CB         23.8853    3.1229   -4.2334 C.3       3 UNK        -0.1990 
     29 N          24.0701    1.4275   -2.4870 N.am      3 UNK        -0.4232 
     30 C          24.6286    0.6080   -1.5849 C.2       2 UNK         0.4993 
     31 O          24.0259    0.2688   -0.5658 O.2       2 UNK        -0.5286 
     32 CA         26.0664    0.1010   -1.7932 C.3       2 UNK         0.0209 
     33 CB         27.0621    1.0021   -1.0428 C.3       2 UNK        -0.1931 
     34 N          26.1638   -1.2535   -1.2625 N.am      2 UNK        -0.4546 
     35 C          26.4003   -2.3531   -1.9853 C.2       1 UNK         0.5154 
     36 O          26.6105   -2.3358   -3.2046 O.2       1 UNK        -0.5181 
     37 C          27.7303   -1.7128   -6.7136 C.2       5 UNK         0.5014 
     38 O          28.2975   -1.4926   -7.7834 O.2       5 UNK        -0.5248 
     39 N          27.9757   -1.0206   -5.5907 N.am      6 UNK        -0.4434 
     40 CA         29.0464   -0.0253   -5.4549 C.3       6 UNK         0.0363 
     41 CB         29.0479    0.5542   -4.0341 C.3       6 UNK        -0.1936 
     42 C          29.0285    1.1093   -6.4972 C.2       6 UNK         0.5081 
     43 O          30.0872    1.4640   -7.0161 O.2       6 UNK        -0.5248 
     44 N          27.8396    1.6388   -6.8189 N.am      7 UNK        -0.4718 
     45 CA         27.6681    2.6923   -7.8247 C.3       7 UNK         0.0273 
     46 CB         26.3407    3.4287   -7.5876 C.3       7 UNK        -0.1935 
     47 C          27.7419    2.1638   -9.2668 C.2       7 UNK         0.5018 
     48 O          28.1073    2.9269  -10.1607 O.2       7 UNK        -0.5186 
     49 N          27.4155    0.8793   -9.4722 N.am      8 UNK        -0.4240 
     50 CA         27.5545    0.1900  -10.7580 C.3       8 UNK         0.0235 
     51 CB         26.6669   -1.0656  -10.7815 C.3       8 UNK        -0.2000 
     52 C          29.0237   -0.1595  -11.0442 C.2       8 UNK         0.4941 
     53 O          29.4817    0.0202  -12.1730 O.2       8 UNK        -0.5273 
     54 N          29.7420   -0.6118  -10.0062 N.am      9 UNK        -0.4262 
     55 CA         31.1911   -0.8237  -10.0091 C.3       9 UNK         0.0264 
     56 CB         31.5855   -1.6012   -8.7421 C.3       9 UNK        -0.1955 
     57 C          31.9867    0.4917  -10.1006 C.2       9 UNK         0.5031 
     58 O          33.0927    0.4871  -10.6426 O.2       9 UNK        -0.5390 
     59 N          31.4079    1.5784   -9.5667 N.am      10 UNK        -0.4204 
     60 CA         31.9474    2.9389   -9.4673 C.3       10 UNK         0.0237 
     61 CB         32.1646    3.5587  -10.8642 C.3       10 UNK        -0.1985 
     62 C          33.1908    3.0166   -8.5611 C.2       10 UNK         0.4970 
     63 O          34.1004    3.8053   -8.8268 O.2       10 UNK        -0.4914 
     64 N          33.2060    2.1901   -7.5096 N.am      11 UNK        -0.4285 
     65 CA         34.2587    2.1418   -6.4890 C.3       11 UNK         0.1007 
     66 C          34.1271    3.2725   -5.4296 C.2       11 UNK         0.5703 
     67 N          35.1759    3.5159   -4.6546 N.am      11 UNK        -0.7361 
     68 O          33.0931    3.9251   -5.2928 O.2       11 UNK        -0.4986 
     69 C69        34.3691    0.7276   -5.8584 C.3       12 UNK        -0.0947 
     70 S70        32.8041    0.0920   -5.1711 S.3       12 UNK        -0.2240 
     71 C71        33.1492   -1.6938   -5.1683 C.3       12 UNK         0.0194 
     72 H72        25.2601   -7.4258   -3.1468 H         1 UNK         0.0906 
     73 H73        25.1740   -6.4256   -4.5970 H         1 UNK         0.0906 
     74 H74        26.7288   -6.6997   -3.8107 H         1 UNK         0.0906 
     75 H75        27.3315   -5.3457   -2.0573 H         1 UNK         0.3140 
     76 H76        25.4674   -3.6924   -0.6450 H         1 UNK         0.1085 
     77 H77        27.6589   -2.7352    0.4034 H         1 UNK         0.0836 
     78 H78        27.2349   -4.3827    0.6910 H         1 UNK         0.0836 
     79 H79        30.7058   -2.4390   -0.8318 H         1 UNK         0.0731 
     80 H80        29.1597   -1.9948   -1.4988 H         1 UNK         0.0731 
     81 H81        31.9239   -1.5408   -2.7445 H         1 UNK         0.1312 
     82 H82        31.7759   -3.6782   -6.4614 H         1 UNK         0.1406 
     83 H83        29.0180   -4.6367   -3.3424 H         1 UNK         0.1631 
     84 H84        29.2729   -6.1500   -5.1816 H         1 UNK         0.0717 
     85 H85        30.5707   -5.9354   -6.3225 H         1 UNK         0.0717 
     86 H86        26.4050   -4.8895   -6.0643 H         1 UNK         0.0934 
     87 H87        27.5149   -4.0225   -5.0475 H         1 UNK         0.0934 
     88 H88        26.3876   -3.0301   -7.6923 H         1 UNK         0.0739 
     89 H89        25.5667   -2.3145   -4.9156 H         1 UNK         0.3093 
     90 H90        22.5868   -0.7759   -6.3022 H         1 UNK         0.0818 
     91 H91        21.6276   -2.0019   -4.4241 H         1 UNK         0.0819 
     92 H92        22.2236   -3.1724   -5.5871 H         1 UNK         0.0819 
     93 H93        23.1444   -2.8473   -4.1253 H         1 UNK         0.0819 
     94 H94        23.2050   -0.2463   -3.7952 H         1 UNK         0.3041 
     95 H95        25.6782    2.1313   -3.6410 H         1 UNK         0.0784 
     96 H96        24.2804    3.4893   -5.1817 H         1 UNK         0.0793 
     97 H97        22.8201    2.9369   -4.3775 H         1 UNK         0.0793 
     98 H98        23.9902    3.9310   -3.5090 H         1 UNK         0.0793 
     99 H99        23.1413    1.7703   -2.2857 H         1 UNK         0.3024 
    100 H100       26.3280    0.0926   -2.8487 H         1 UNK         0.1171 
    101 H101       28.0821    0.6278   -1.1297 H         1 UNK         0.0786 
    102 H102       27.0530    2.0160   -1.4447 H         1 UNK         0.0786 
    103 H103       26.8248    1.0709    0.0197 H         1 UNK         0.0786 
    104 H104       25.9191   -1.3477   -0.2859 H         1 UNK         0.2977 
    105 H105       27.4973   -1.3009   -4.7421 H         1 UNK         0.3127 
    106 H106       29.9798   -0.5717   -5.5953 H         1 UNK         0.0770 
    107 H107       29.9253    1.1833   -3.8776 H         1 UNK         0.0814 
    108 H108       29.0785   -0.2340   -3.2827 H         1 UNK         0.0814 
    109 H109       28.1699    1.1729   -3.8519 H         1 UNK         0.0814 
    110 H110       26.9902    1.2788   -6.3859 H         1 UNK         0.2983 
    111 H111       28.4764    3.4173   -7.7031 H         1 UNK         0.0947 
    112 H112       26.2315    4.2656   -8.2786 H         1 UNK         0.0806 
    113 H113       26.2886    3.8338   -6.5773 H         1 UNK         0.0806 
    114 H114       25.4816    2.7733   -7.7347 H         1 UNK         0.0806 
    115 H115       27.1825    0.3084   -8.6702 H         1 UNK         0.3000 
    116 H116       27.2094    0.8603  -11.5485 H         1 UNK         0.0850 
    117 H117       26.7137   -1.5543  -11.7555 H         1 UNK         0.0810 
    118 H118       25.6223   -0.8170  -10.5928 H         1 UNK         0.0810 
    119 H119       26.9734   -1.7999  -10.0365 H         1 UNK         0.0810 
    120 H120       29.2522   -0.8162   -9.1344 H         1 UNK         0.3040 
    121 H121       31.4442   -1.4295  -10.8815 H         1 UNK         0.0766 
    122 H122       31.3351   -1.0486   -7.8353 H         1 UNK         0.0812 
    123 H123       32.6582   -1.7975   -8.7204 H         1 UNK         0.0812 
    124 H124       31.0756   -2.5637   -8.6941 H         1 UNK         0.0812 
    125 H125       30.5512    1.4280   -9.0455 H         1 UNK         0.3205 
    126 H126       31.1769    3.5266   -8.9659 H         1 UNK         0.0754 
    127 H127       32.4242    4.6152  -10.7870 H         1 UNK         0.0769 
    128 H128       31.2607    3.4913  -11.4699 H         1 UNK         0.0769 
    129 H129       32.9711    3.0650  -11.4071 H         1 UNK         0.0769 
    130 H130       32.3796    1.6391   -7.3134 H         1 UNK         0.2981 
    131 H131       35.2060    2.3269   -6.9995 H         1 UNK         0.0541 
    132 H132       36.0308    2.9907   -4.7516 H         1 UNK         0.3459 
    133 H133       35.1108    4.2419   -3.9584 H         1 UNK         0.3459 
    134 H134       35.1304    0.7028   -5.0770 H         1 UNK         0.0612 
    135 H135       34.7115    0.0306   -6.6249 H         1 UNK         0.0612 
    136 H136       33.4235   -2.0031   -6.1779 H         1 UNK         0.0624 
    137 H137       34.0148   -1.8904   -4.5343 H         1 UNK         0.0624 
@<TRIPOS>BOND
     1    1    2 1    
     2    1   72 1    
     3    1   73 1    
     4    1   74 1    
     5    2    3 2    
     6    2    4 am   BACKBONE|DICT|INTERRES
     7    4    5 1    
     8    4   75 1    
     9    5    6 1    
    10    5   35 1    
    11    5   76 1    
    12    6    7 1    
    13    6   77 1    
    14    6   78 1    
    15    7    8 1    
    16    8    9 1    
    17    8   79 1    
    18    8   80 1    
    19    9   10 ar   
    20    9   14 ar   
    21   10   11 ar   
    22   10   81 1    
    23   11   12 ar   
    24   11   71 1    
    25   12   13 ar   
    26   12   82 1    
    27   13   14 ar   
    28   13   15 1    
    29   14   83 1    
    30   15   16 1    
    31   15   84 1    
    32   15   85 1    
    33   16   17 1    
    34   17   18 1    
    35   17   86 1    
    36   17   87 1    
    37   18   19 1    
    38   18   37 1    
    39   18   88 1    
    40   19   20 am   BACKBONE|DICT|INTERRES
    41   19   89 1    
    42   20   21 2    
    43   20   22 1    
    44   22   23 1    
    45   22   24 1    
    46   22   90 1    
    47   23   91 1    
    48   23   92 1    
    49   23   93 1    
    50   24   25 am   BACKBONE|DICT|INTERRES
    51   24   94 1    
    52   25   26 2    
    53   25   27 1    
    54   27   28 1    
    55   27   29 1    
    56   27   95 1    
    57   28   96 1    
    58   28   97 1    
    59   28   98 1    
    60   29   30 am   BACKBONE|DICT|INTERRES
    61   29   99 1    
    62   30   31 2    
    63   30   32 1    
    64   32   33 1    
    65   32   34 1    
    66   32  100 1    
    67   33  101 1    
    68   33  102 1    
    69   33  103 1    
    70   34   35 am   BACKBONE|DICT|INTERRES
    71   34  104 1    
    72   35   36 2    
    73   37   38 2    
    74   37   39 am   BACKBONE|DICT|INTERRES
    75   39   40 1    
    76   39  105 1    
    77   40   41 1    
    78   40   42 1    
    79   40  106 1    
    80   41  107 1    
    81   41  108 1    
    82   41  109 1    
    83   42   43 2    
    84   42   44 am   BACKBONE|DICT|INTERRES
    85   44   45 1    
    86   44  110 1    
    87   45   46 1    
    88   45   47 1    
    89   45  111 1    
    90   46  112 1    
    91   46  113 1    
    92   46  114 1    
    93   47   48 2    
    94   47   49 am   BACKBONE|DICT|INTERRES
    95   49   50 1    
    96   49  115 1    
    97   50   51 1    
    98   50   52 1    
    99   50  116 1    
   100   51  117 1    
   101   51  118 1    
   102   51  119 1    
   103   52   53 2    
   104   52   54 am   BACKBONE|DICT|INTERRES
   105   54   55 1    
   106   54  120 1    
   107   55   56 1    
   108   55   57 1    
   109   55  121 1    
   110   56  122 1    
   111   56  123 1    
   112   56  124 1    
   113   57   58 2    
   114   57   59 am   BACKBONE|DICT|INTERRES
   115   59   60 1    
   116   59  125 1    
   117   60   61 1    
   118   60   62 1    
   119   60  126 1    
   120   61  127 1    
   121   61  128 1    
   122   61  129 1    
   123   62   63 2    
   124   62   64 am   BACKBONE|DICT|INTERRES
   125   64   65 1    
   126   64  130 1    
   127   65   66 1    
   128   65   69 1    
   129   65  131 1    
   130   66   67 am   BACKBONE|DICT|INTERRES
   131   66   68 2    
   132   67  132 1    
   133   67  133 1    
   134   69   70 1    
   135   69  134 1    
   136   69  135 1    
   137   70   71 1    
   138   71  136 1    
   139   71  137 1    
@<TRIPOS>SUBSTRUCTURE
     1 UNK         1 GROUP             0       ****    0 ROOT    
