@<TRIPOS>MOLECULE
3R137
137   139    1
SMALL
USER_CHARGES


@<TRIPOS>ATOM
      1 CA         28.9015   -0.2086   -2.5789 C.3       0 UNK        -0.2020 
      2 C          29.2040   -0.4331   -1.1002 C.2       0 UNK         0.4855 
      3 O          29.6587    0.4934   -0.4322 O.2       0 UNK        -0.5197 
      4 N          28.9848   -1.6306   -0.5410 N.am      1 UNK        -0.4892 
      5 CA         28.3867   -2.8183   -1.1648 C.3       1 UNK         0.0835 
      6 C6         28.7118   -4.1062   -0.3607 C.3       12 UNK        -0.0855 
      7 S7         30.4966   -4.4037   -0.1309 S.3       12 UNK        -0.2931 
      8 C8         30.8544   -5.5760   -1.4785 C.3       12 UNK         0.0378 
      9 C9         30.8632   -4.8831   -2.8325 C.ar      12 UNK        -0.0802 
     10 C10        31.8935   -3.9909   -3.1439 C.ar      12 UNK        -0.0944 
     11 C11        31.9211   -3.3417   -4.3797 C.ar      12 UNK        -0.0787 
     12 C12        30.9149   -3.6005   -5.3125 C.ar      12 UNK        -0.0862 
     13 C13        29.8642   -4.4712   -5.0063 C.ar      12 UNK        -0.0733 
     14 C14        29.8500   -5.1223   -3.7681 C.ar      12 UNK        -0.0832 
     15 C15        28.7403   -4.6914   -6.0119 C.3       12 UNK         0.0240 
     16 S16        27.1953   -3.8550   -5.5186 S.3       12 UNK        -0.2522 
     17 C17        27.6934   -2.1022   -5.4740 C.3       12 UNK        -0.0967 
     18 CA         27.0902   -1.2620   -6.6217 C.3       5 UNK         0.0660 
     19 N          25.6349   -1.1436   -6.4933 N.am      5 UNK        -0.4015 
     20 C          24.8241   -0.3724   -7.2323 C.2       4 UNK         0.4946 
     21 O          25.1906    0.2609   -8.2226 O.2       4 UNK        -0.5353 
     22 CA         23.3793   -0.2091   -6.7332 C.3       4 UNK         0.0277 
     23 CB         22.4447   -1.1757   -7.4760 C.3       4 UNK        -0.1981 
     24 N          23.2236   -0.3946   -5.2849 N.am      4 UNK        -0.4209 
     25 C          23.8582    0.2871   -4.3195 C.2       3 UNK         0.4942 
     26 O          24.6957    1.1632   -4.5358 O.2       3 UNK        -0.5208 
     27 CA         23.5410   -0.1058   -2.8673 C.3       3 UNK         0.0250 
     28 CB         22.0236   -0.1360   -2.5869 C.3       3 UNK        -0.1990 
     29 N          24.1862   -1.3566   -2.4467 N.am      3 UNK        -0.4232 
     30 C          24.0300   -2.5907   -2.9461 C.2       2 UNK         0.4993 
     31 O          23.3138   -2.8538   -3.9138 O.2       2 UNK        -0.5286 
     32 CA         24.7958   -3.7219   -2.2315 C.3       2 UNK         0.0209 
     33 CB         24.5514   -5.0996   -2.8773 C.3       2 UNK        -0.1931 
     34 N          26.2437   -3.4980   -2.1450 N.am      2 UNK        -0.4546 
     35 C          26.8539   -2.6786   -1.2789 C.2       1 UNK         0.5154 
     36 O          26.2446   -1.8882   -0.5530 O.2       1 UNK        -0.5181 
     37 C          27.8110    0.1019   -6.6815 C.2       5 UNK         0.5014 
     38 O          28.7728    0.2277   -7.4387 O.2       5 UNK        -0.5248 
     39 N          27.3285    1.1064   -5.9324 N.am      6 UNK        -0.4434 
     40 CA         27.8876    2.4621   -5.9196 C.3       6 UNK         0.0363 
     41 CB         27.2581    3.2621   -4.7686 C.3       6 UNK        -0.1936 
     42 C          27.7304    3.2186   -7.2538 C.2       6 UNK         0.5081 
     43 O          28.4779    4.1679   -7.4879 O.2       6 UNK        -0.5248 
     44 N          26.7857    2.7912   -8.1020 N.am      7 UNK        -0.4718 
     45 CA         26.5990    3.3001   -9.4599 C.3       7 UNK         0.0273 
     46 CB         25.1010    3.5426   -9.7105 C.3       7 UNK        -0.1935 
     47 C          27.1675    2.3198  -10.4967 C.2       7 UNK         0.5018 
     48 O          27.8356    2.7562  -11.4342 O.2       7 UNK        -0.5186 
     49 N          26.8770    1.0219  -10.3254 N.am      8 UNK        -0.4240 
     50 CA         27.2159   -0.0403  -11.2740 C.3       8 UNK         0.0235 
     51 CB         26.3887   -1.2951  -10.9482 C.3       8 UNK        -0.2000 
     52 C          28.7131   -0.3827  -11.3239 C.2       8 UNK         0.4941 
     53 O          29.2331   -0.6188  -12.4155 O.2       8 UNK        -0.5273 
     54 N          29.3678   -0.4270  -10.1569 N.am      9 UNK        -0.4262 
     55 CA         30.7796   -0.7890  -10.0075 C.3       9 UNK         0.0264 
     56 CB         30.8996   -1.9592   -9.0168 C.3       9 UNK        -0.1955 
     57 C          31.6248    0.3974   -9.5270 C.2       9 UNK         0.5031 
     58 O          32.7876    0.4974   -9.9181 O.2       9 UNK        -0.5390 
     59 N          31.0544    1.2466   -8.6592 N.am      10 UNK        -0.4204 
     60 CA         31.6260    2.4462   -8.0253 C.3       10 UNK         0.0237 
     61 CB         32.0600    3.4873   -9.0758 C.3       10 UNK        -0.1985 
     62 C          32.7449    2.1801   -6.9984 C.2       10 UNK         0.4970 
     63 O          32.9588    3.0240   -6.1276 O.2       10 UNK        -0.4914 
     64 N          33.4128    1.0245   -7.0960 N.am      11 UNK        -0.4285 
     65 CA         34.4552    0.5182   -6.1874 C.3       11 UNK         0.1007 
     66 C          35.8080    1.2905   -6.2560 C.2       11 UNK         0.5703 
     67 N          36.0529    2.1065   -7.2747 N.am      11 UNK        -0.7361 
     68 O          36.6669    1.1246   -5.3927 O.2       11 UNK        -0.4986 
     69 C69        33.9585    0.3068   -4.7254 C.3       12 UNK        -0.0947 
     70 S70        32.4038   -0.6411   -4.5954 S.3       12 UNK        -0.2240 
     71 C71        33.0246   -2.3467   -4.7003 C.3       12 UNK         0.0194 
     72 H72        29.3860   -0.9619   -3.1990 H         1 UNK         0.0906 
     73 H73        27.8270   -0.2199   -2.7559 H         1 UNK         0.0906 
     74 H74        29.2777    0.7626   -2.9006 H         1 UNK         0.0906 
     75 H75        29.1968   -1.7394    0.4402 H         1 UNK         0.3140 
     76 H76        28.7957   -2.9303   -2.1699 H         1 UNK         0.1085 
     77 H77        28.2626   -4.0551    0.6336 H         1 UNK         0.0836 
     78 H78        28.2717   -4.9848   -0.8366 H         1 UNK         0.0836 
     79 H79        31.8337   -6.0239   -1.3027 H         1 UNK         0.0731 
     80 H80        30.1370   -6.3979   -1.4576 H         1 UNK         0.0731 
     81 H81        32.6672   -3.7937   -2.4141 H         1 UNK         0.1312 
     82 H82        30.9369   -3.0956   -6.2668 H         1 UNK         0.1406 
     83 H83        29.0440   -5.8041   -3.5322 H         1 UNK         0.1631 
     84 H84        28.5472   -5.7606   -6.1099 H         1 UNK         0.0717 
     85 H85        29.0325   -4.3421   -7.0037 H         1 UNK         0.0717 
     86 H86        27.3777   -1.7011   -4.5113 H         1 UNK         0.0934 
     87 H87        28.7805   -2.0322   -5.4817 H         1 UNK         0.0934 
     88 H88        27.2905   -1.7691   -7.5673 H         1 UNK         0.0739 
     89 H89        25.2189   -1.6513   -5.7260 H         1 UNK         0.3093 
     90 H90        23.0742    0.8133   -6.9647 H         1 UNK         0.0818 
     91 H91        21.4016   -1.0004   -7.2122 H         1 UNK         0.0819 
     92 H92        22.5297   -1.0488   -8.5564 H         1 UNK         0.0819 
     93 H93        22.6785   -2.2169   -7.2495 H         1 UNK         0.0819 
     94 H94        22.6613   -1.1839   -4.9855 H         1 UNK         0.3041 
     95 H95        23.9682    0.6769   -2.2381 H         1 UNK         0.0784 
     96 H96        21.5519    0.7996   -2.8907 H         1 UNK         0.0793 
     97 H97        21.5159   -0.9432   -3.1153 H         1 UNK         0.0793 
     98 H98        21.8257   -0.2646   -1.5227 H         1 UNK         0.0793 
     99 H99        24.8353   -1.2731   -1.6672 H         1 UNK         0.3024 
    100 H100       24.3963   -3.7660   -1.2154 H         1 UNK         0.1171 
    101 H101       23.4872   -5.3388   -2.8989 H         1 UNK         0.0786 
    102 H102       25.0463   -5.8948   -2.3195 H         1 UNK         0.0786 
    103 H103       24.9127   -5.1347   -3.9056 H         1 UNK         0.0786 
    104 H104       26.8080   -4.0810   -2.7469 H         1 UNK         0.2977 
    105 H105       26.4841    0.9657   -5.3836 H         1 UNK         0.3127 
    106 H106       28.9583    2.3742   -5.7228 H         1 UNK         0.0770 
    107 H107       26.1871    3.4052   -4.9170 H         1 UNK         0.0814 
    108 H108       27.7102    4.2516   -4.6887 H         1 UNK         0.0814 
    109 H109       27.4007    2.7621   -3.8104 H         1 UNK         0.0814 
    110 H110       26.2248    1.9873   -7.8422 H         1 UNK         0.2983 
    111 H111       27.1183    4.2530   -9.5859 H         1 UNK         0.0947 
    112 H112       24.5148    2.6297   -9.5974 H         1 UNK         0.0806 
    113 H113       24.7009    4.2834   -9.0181 H         1 UNK         0.0806 
    114 H114       24.9302    3.9178  -10.7205 H         1 UNK         0.0806 
    115 H115       26.2853    0.7541   -9.5398 H         1 UNK         0.3000 
    116 H116       26.9266    0.3015  -12.2703 H         1 UNK         0.0850 
    117 H117       26.5940   -2.0951  -11.6608 H         1 UNK         0.0810 
    118 H118       25.3194   -1.0872  -10.9935 H         1 UNK         0.0810 
    119 H119       26.6106   -1.6794   -9.9523 H         1 UNK         0.0810 
    120 H120       28.8722   -0.1912   -9.3027 H         1 UNK         0.3040 
    121 H121       31.1953   -1.1154  -10.9631 H         1 UNK         0.0766 
    122 H122       31.9401   -2.2615   -8.8905 H         1 UNK         0.0812 
    123 H123       30.3483   -2.8320   -9.3668 H         1 UNK         0.0812 
    124 H124       30.5144   -1.6927   -8.0329 H         1 UNK         0.0812 
    125 H125       30.1386    0.9805   -8.2986 H         1 UNK         0.3205 
    126 H126       30.8077    2.8845   -7.4548 H         1 UNK         0.0754 
    127 H127       32.3710    4.4163   -8.5962 H         1 UNK         0.0769 
    128 H128       31.2388    3.7313   -9.7501 H         1 UNK         0.0769 
    129 H129       32.8986    3.1381   -9.6783 H         1 UNK         0.0769 
    130 H130       33.2235    0.4545   -7.9109 H         1 UNK         0.2981 
    131 H131       34.6990   -0.4700   -6.5778 H         1 UNK         0.0541 
    132 H132       35.3645    2.2400   -7.9978 H         1 UNK         0.3459 
    133 H133       36.9345    2.5929   -7.3175 H         1 UNK         0.3459 
    134 H134       33.7989    1.2703   -4.2392 H         1 UNK         0.0612 
    135 H135       34.7195   -0.2018   -4.1312 H         1 UNK         0.0612 
    136 H136       33.8627   -2.4733   -4.0132 H         1 UNK         0.0624 
    137 H137       33.4104   -2.5317   -5.7037 H         1 UNK         0.0624 
@<TRIPOS>BOND
     1    1    2 1    
     2    1   72 1    
     3    1   73 1    
     4    1   74 1    
     5    2    3 2    
     6    2    4 am   BACKBONE|DICT|INTERRES
     7    4    5 1    
     8    4   75 1    
     9    5    6 1    
    10    5   35 1    
    11    5   76 1    
    12    6    7 1    
    13    6   77 1    
    14    6   78 1    
    15    7    8 1    
    16    8    9 1    
    17    8   79 1    
    18    8   80 1    
    19    9   10 ar   
    20    9   14 ar   
    21   10   11 ar   
    22   10   81 1    
    23   11   12 ar   
    24   11   71 1    
    25   12   13 ar   
    26   12   82 1    
    27   13   14 ar   
    28   13   15 1    
    29   14   83 1    
    30   15   16 1    
    31   15   84 1    
    32   15   85 1    
    33   16   17 1    
    34   17   18 1    
    35   17   86 1    
    36   17   87 1    
    37   18   19 1    
    38   18   37 1    
    39   18   88 1    
    40   19   20 am   BACKBONE|DICT|INTERRES
    41   19   89 1    
    42   20   21 2    
    43   20   22 1    
    44   22   23 1    
    45   22   24 1    
    46   22   90 1    
    47   23   91 1    
    48   23   92 1    
    49   23   93 1    
    50   24   25 am   BACKBONE|DICT|INTERRES
    51   24   94 1    
    52   25   26 2    
    53   25   27 1    
    54   27   28 1    
    55   27   29 1    
    56   27   95 1    
    57   28   96 1    
    58   28   97 1    
    59   28   98 1    
    60   29   30 am   BACKBONE|DICT|INTERRES
    61   29   99 1    
    62   30   31 2    
    63   30   32 1    
    64   32   33 1    
    65   32   34 1    
    66   32  100 1    
    67   33  101 1    
    68   33  102 1    
    69   33  103 1    
    70   34   35 am   BACKBONE|DICT|INTERRES
    71   34  104 1    
    72   35   36 2    
    73   37   38 2    
    74   37   39 am   BACKBONE|DICT|INTERRES
    75   39   40 1    
    76   39  105 1    
    77   40   41 1    
    78   40   42 1    
    79   40  106 1    
    80   41  107 1    
    81   41  108 1    
    82   41  109 1    
    83   42   43 2    
    84   42   44 am   BACKBONE|DICT|INTERRES
    85   44   45 1    
    86   44  110 1    
    87   45   46 1    
    88   45   47 1    
    89   45  111 1    
    90   46  112 1    
    91   46  113 1    
    92   46  114 1    
    93   47   48 2    
    94   47   49 am   BACKBONE|DICT|INTERRES
    95   49   50 1    
    96   49  115 1    
    97   50   51 1    
    98   50   52 1    
    99   50  116 1    
   100   51  117 1    
   101   51  118 1    
   102   51  119 1    
   103   52   53 2    
   104   52   54 am   BACKBONE|DICT|INTERRES
   105   54   55 1    
   106   54  120 1    
   107   55   56 1    
   108   55   57 1    
   109   55  121 1    
   110   56  122 1    
   111   56  123 1    
   112   56  124 1    
   113   57   58 2    
   114   57   59 am   BACKBONE|DICT|INTERRES
   115   59   60 1    
   116   59  125 1    
   117   60   61 1    
   118   60   62 1    
   119   60  126 1    
   120   61  127 1    
   121   61  128 1    
   122   61  129 1    
   123   62   63 2    
   124   62   64 am   BACKBONE|DICT|INTERRES
   125   64   65 1    
   126   64  130 1    
   127   65   66 1    
   128   65   69 1    
   129   65  131 1    
   130   66   67 am   BACKBONE|DICT|INTERRES
   131   66   68 2    
   132   67  132 1    
   133   67  133 1    
   134   69   70 1    
   135   69  134 1    
   136   69  135 1    
   137   70   71 1    
   138   71  136 1    
   139   71  137 1    
@<TRIPOS>SUBSTRUCTURE
     1 UNK         1 GROUP             0       ****    0 ROOT    
