@<TRIPOS>MOLECULE
3R137
137   139    1
SMALL
USER_CHARGES


@<TRIPOS>ATOM
      1 CA         25.6751   -1.1545   -1.1083 C.3       0 UNK        -0.2020 
      2 C          26.5135   -2.0704   -1.9869 C.2       0 UNK         0.4855 
      3 O          26.7070   -1.7852   -3.1693 O.2       0 UNK        -0.5197 
      4 N          27.0212   -3.1650   -1.4093 N.am      1 UNK        -0.4892 
      5 CA         27.9154   -4.1293   -2.0538 C.3       1 UNK         0.0835 
      6 C6         28.4963   -5.1597   -1.0454 C.3       12 UNK        -0.0855 
      7 S7         29.1266   -4.4198    0.5033 S.3       12 UNK        -0.2931 
      8 C8         30.8856   -4.1541    0.1203 C.3       12 UNK         0.0378 
      9 C9         31.0789   -3.0563   -0.9151 C.ar      12 UNK        -0.0802 
     10 C10        31.5763   -3.3636   -2.1837 C.ar      12 UNK        -0.0944 
     11 C11        31.7559   -2.3570   -3.1359 C.ar      12 UNK        -0.0787 
     12 C12        31.4364   -1.0333   -2.8156 C.ar      12 UNK        -0.0862 
     13 C13        30.9465   -0.7136   -1.5460 C.ar      12 UNK        -0.0733 
     14 C14        30.7687   -1.7293   -0.6012 C.ar      12 UNK        -0.0832 
     15 C15        30.6326    0.7281   -1.1776 C.3       12 UNK         0.0240 
     16 S16        28.9527    1.2042   -1.6918 S.3       12 UNK        -0.2522 
     17 C17        29.2534    2.2109   -3.1892 C.3       12 UNK        -0.0967 
     18 CA         28.4557    1.7305   -4.4283 C.3       5 UNK         0.0660 
     19 N          27.0348    1.5093   -4.1262 N.am      5 UNK        -0.4015 
     20 C          26.1190    1.0648   -4.9944 C.2       4 UNK         0.4946 
     21 O          26.3093    0.9541   -6.2088 O.2       4 UNK        -0.5353 
     22 CA         24.7606    0.6508   -4.4272 C.3       4 UNK         0.0277 
     23 CB         23.7021    1.7512   -4.6042 C.3       4 UNK        -0.1981 
     24 N          24.3938   -0.5434   -5.1721 N.am      4 UNK        -0.4209 
     25 C          23.7222   -1.5997   -4.7100 C.2       3 UNK         0.4942 
     26 O          23.1267   -1.6347   -3.6333 O.2       3 UNK        -0.5208 
     27 CA         23.7898   -2.8496   -5.5896 C.3       3 UNK         0.0250 
     28 CB         23.4360   -2.5399   -7.0632 C.3       3 UNK        -0.1990 
     29 N          25.1326   -3.4218   -5.4626 N.am      3 UNK        -0.4232 
     30 C          25.5112   -4.6217   -5.9234 C.2       2 UNK         0.4993 
     31 O          24.7609   -5.3920   -6.5242 O.2       2 UNK        -0.5286 
     32 CA         26.9709   -5.0518   -5.6820 C.3       2 UNK         0.0209 
     33 CB         27.8481   -4.6841   -6.8896 C.3       2 UNK        -0.1931 
     34 N          27.5672   -4.4963   -4.4630 N.am      2 UNK        -0.4546 
     35 C          27.2006   -4.8415   -3.2212 C.2       1 UNK         0.5154 
     36 O          26.3248   -5.6746   -2.9763 O.2       1 UNK        -0.5181 
     37 C          28.6860    2.6900   -5.6144 C.2       5 UNK         0.5014 
     38 O          29.5135    2.4015   -6.4810 O.2       5 UNK        -0.5248 
     39 N          27.9343    3.8001   -5.6378 N.am      6 UNK        -0.4434 
     40 CA         27.9844    4.8103   -6.6958 C.3       6 UNK         0.0363 
     41 CB         27.3358    6.1110   -6.1958 C.3       6 UNK        -0.1936 
     42 C          27.3182    4.3432   -7.9997 C.2       6 UNK         0.5081 
     43 O          27.8325    4.6442   -9.0761 O.2       6 UNK        -0.5248 
     44 N          26.2032    3.6060   -7.8891 N.am      7 UNK        -0.4718 
     45 CA         25.4518    3.0650   -9.0282 C.3       7 UNK         0.0273 
     46 CB         24.0774    2.5646   -8.5565 C.3       7 UNK        -0.1935 
     47 C          26.2149    1.9412   -9.7447 C.2       7 UNK         0.5018 
     48 O          26.2092    1.8854  -10.9745 O.2       7 UNK        -0.5186 
     49 N          26.8870    1.0930   -8.9564 N.am      8 UNK        -0.4240 
     50 CA         27.7782    0.0326   -9.4241 C.3       8 UNK         0.0235 
     51 CB         27.9093   -1.0201   -8.3112 C.3       8 UNK        -0.2000 
     52 C          29.1650    0.5484   -9.8557 C.2       8 UNK         0.4941 
     53 O          29.9601   -0.2507  -10.3504 O.2       8 UNK        -0.5273 
     54 N          29.4455    1.8446   -9.6412 N.am      9 UNK        -0.4262 
     55 CA         30.6937    2.5560   -9.9433 C.3       9 UNK         0.0264 
     56 CB         30.8735    2.7028  -11.4690 C.3       9 UNK        -0.1955 
     57 C          31.9139    1.9208   -9.2497 C.2       9 UNK         0.5031 
     58 O          32.9193    1.6377   -9.9043 O.2       9 UNK        -0.5390 
     59 N          31.7758    1.6819   -7.9366 N.am      10 UNK        -0.4204 
     60 CA         32.7073    0.9566   -7.0649 C.3       10 UNK         0.0237 
     61 CB         34.0408    1.7185   -6.9070 C.3       10 UNK        -0.1985 
     62 C          32.8873   -0.5146   -7.4909 C.2       10 UNK         0.4970 
     63 O          34.0038   -1.0351   -7.4565 O.2       10 UNK        -0.4914 
     64 N          31.7676   -1.1549   -7.8542 N.am      11 UNK        -0.4285 
     65 CA         31.6588   -2.5622   -8.2726 C.3       11 UNK         0.1007 
     66 C          32.4034   -2.8546   -9.6072 C.2       11 UNK         0.5703 
     67 N          32.1964   -2.0363  -10.6305 N.am      11 UNK        -0.7361 
     68 O          33.1575   -3.8179   -9.7285 O.2       11 UNK        -0.4986 
     69 C69        31.9888   -3.5721   -7.1361 C.3       12 UNK        -0.0947 
     70 S70        31.0095   -3.2831   -5.6225 S.3       12 UNK        -0.2240 
     71 C71        32.3165   -2.7037   -4.5024 C.3       12 UNK         0.0194 
     72 H72        25.6903   -1.4670   -0.0644 H         1 UNK         0.0906 
     73 H73        26.0567   -0.1354   -1.1579 H         1 UNK         0.0906 
     74 H74        24.6393   -1.1523   -1.4451 H         1 UNK         0.0906 
     75 H75        26.8303   -3.3512   -0.4351 H         1 UNK         0.3140 
     76 H76        28.7492   -3.5570   -2.4650 H         1 UNK         0.1085 
     77 H77        29.2901   -5.7429   -1.5160 H         1 UNK         0.0836 
     78 H78        27.7312   -5.8817   -0.7526 H         1 UNK         0.0836 
     79 H79        31.3326   -5.0932   -0.2098 H         1 UNK         0.0731 
     80 H80        31.4070   -3.8736    1.0366 H         1 UNK         0.0731 
     81 H81        31.8233   -4.3865   -2.4344 H         1 UNK         0.1312 
     82 H82        31.5756   -0.2517   -3.5497 H         1 UNK         0.1406 
     83 H83        30.3846   -1.4905    0.3815 H         1 UNK         0.1631 
     84 H84        31.3795    1.3996   -1.6026 H         1 UNK         0.0717 
     85 H85        30.7064    0.8566   -0.0966 H         1 UNK         0.0717 
     86 H86        28.9941    3.2418   -2.9393 H         1 UNK         0.0934 
     87 H87        30.3198    2.2208   -3.4216 H         1 UNK         0.0934 
     88 H88        28.8570    0.7588   -4.7252 H         1 UNK         0.0739 
     89 H89        26.7966    1.5515   -3.1461 H         1 UNK         0.3093 
     90 H90        24.8670    0.4087   -3.3693 H         1 UNK         0.0818 
     91 H91        23.9815    2.6533   -4.0588 H         1 UNK         0.0819 
     92 H92        23.5712    2.0272   -5.6496 H         1 UNK         0.0819 
     93 H93        22.7333    1.4284   -4.2226 H         1 UNK         0.0819 
     94 H94        24.8837   -0.6184   -6.0554 H         1 UNK         0.3041 
     95 H95        23.0669   -3.5688   -5.1988 H         1 UNK         0.0784 
     96 H96        22.5089   -1.9689   -7.1319 H         1 UNK         0.0793 
     97 H97        24.2157   -1.9644   -7.5633 H         1 UNK         0.0793 
     98 H98        23.2857   -3.4544   -7.6366 H         1 UNK         0.0793 
     99 H99        25.7929   -2.8797   -4.9133 H         1 UNK         0.3024 
    100 H100       26.9671   -6.1402   -5.5867 H         1 UNK         0.1171 
    101 H101       27.9728   -3.6055   -6.9804 H         1 UNK         0.0786 
    102 H102       28.8390   -5.1309   -6.8088 H         1 UNK         0.0786 
    103 H103       27.4086   -5.0439   -7.8211 H         1 UNK         0.0786 
    104 H104       28.2724   -3.7823   -4.5851 H         1 UNK         0.2977 
    105 H105       27.2761    3.9523   -4.8874 H         1 UNK         0.3127 
    106 H106       29.0334    5.0197   -6.9180 H         1 UNK         0.0770 
    107 H107       26.2853    5.9692   -5.9385 H         1 UNK         0.0814 
    108 H108       27.3812    6.8873   -6.9611 H         1 UNK         0.0814 
    109 H109       27.8490    6.4974   -5.3151 H         1 UNK         0.0814 
    110 H110       25.8816    3.3493   -6.9673 H         1 UNK         0.2983 
    111 H111       25.2951    3.8737   -9.7458 H         1 UNK         0.0947 
    112 H112       23.4697    2.2477   -9.4051 H         1 UNK         0.0806 
    113 H113       23.5235    3.3458   -8.0359 H         1 UNK         0.0806 
    114 H114       24.1676    1.7077   -7.8883 H         1 UNK         0.0806 
    115 H115       26.7798    1.1820   -7.9460 H         1 UNK         0.3000 
    116 H116       27.3237   -0.4444  -10.2950 H         1 UNK         0.0850 
    117 H117       28.4182   -0.6212   -7.4323 H         1 UNK         0.0810 
    118 H118       28.4722   -1.8841   -8.6619 H         1 UNK         0.0810 
    119 H119       26.9322   -1.3838   -7.9926 H         1 UNK         0.0810 
    120 H120       28.7250    2.4082   -9.2100 H         1 UNK         0.3040 
    121 H121       30.5871    3.5578   -9.5240 H         1 UNK         0.0766 
    122 H122       31.0128    1.7365  -11.9551 H         1 UNK         0.0812 
    123 H123       30.0089    3.1859  -11.9242 H         1 UNK         0.0812 
    124 H124       31.7465    3.3134  -11.7025 H         1 UNK         0.0812 
    125 H125       30.9024    1.9691   -7.4895 H         1 UNK         0.3205 
    126 H126       32.2335    0.9263   -6.0824 H         1 UNK         0.0754 
    127 H127       34.6715    1.2477   -6.1519 H         1 UNK         0.0769 
    128 H128       33.8737    2.7485   -6.5920 H         1 UNK         0.0769 
    129 H129       34.6102    1.7395   -7.8366 H         1 UNK         0.0769 
    130 H130       30.9122   -0.6241   -7.9016 H         1 UNK         0.2981 
    131 H131       30.6076   -2.7145   -8.5136 H         1 UNK         0.0541 
    132 H132       32.6680   -2.2017  -11.5046 H         1 UNK         0.3459 
    133 H133       31.5223   -1.2782  -10.5489 H         1 UNK         0.3459 
    134 H134       33.0539   -3.5506   -6.9002 H         1 UNK         0.0612 
    135 H135       31.7766   -4.5896   -7.4682 H         1 UNK         0.0612 
    136 H136       33.0778   -3.4792   -4.4045 H         1 UNK         0.0624 
    137 H137       32.8150   -1.8358   -4.9334 H         1 UNK         0.0624 
@<TRIPOS>BOND
     1    1    2 1    
     2    1   72 1    
     3    1   73 1    
     4    1   74 1    
     5    2    3 2    
     6    2    4 am   BACKBONE|DICT|INTERRES
     7    4    5 1    
     8    4   75 1    
     9    5    6 1    
    10    5   35 1    
    11    5   76 1    
    12    6    7 1    
    13    6   77 1    
    14    6   78 1    
    15    7    8 1    
    16    8    9 1    
    17    8   79 1    
    18    8   80 1    
    19    9   10 ar   
    20    9   14 ar   
    21   10   11 ar   
    22   10   81 1    
    23   11   12 ar   
    24   11   71 1    
    25   12   13 ar   
    26   12   82 1    
    27   13   14 ar   
    28   13   15 1    
    29   14   83 1    
    30   15   16 1    
    31   15   84 1    
    32   15   85 1    
    33   16   17 1    
    34   17   18 1    
    35   17   86 1    
    36   17   87 1    
    37   18   19 1    
    38   18   37 1    
    39   18   88 1    
    40   19   20 am   BACKBONE|DICT|INTERRES
    41   19   89 1    
    42   20   21 2    
    43   20   22 1    
    44   22   23 1    
    45   22   24 1    
    46   22   90 1    
    47   23   91 1    
    48   23   92 1    
    49   23   93 1    
    50   24   25 am   BACKBONE|DICT|INTERRES
    51   24   94 1    
    52   25   26 2    
    53   25   27 1    
    54   27   28 1    
    55   27   29 1    
    56   27   95 1    
    57   28   96 1    
    58   28   97 1    
    59   28   98 1    
    60   29   30 am   BACKBONE|DICT|INTERRES
    61   29   99 1    
    62   30   31 2    
    63   30   32 1    
    64   32   33 1    
    65   32   34 1    
    66   32  100 1    
    67   33  101 1    
    68   33  102 1    
    69   33  103 1    
    70   34   35 am   BACKBONE|DICT|INTERRES
    71   34  104 1    
    72   35   36 2    
    73   37   38 2    
    74   37   39 am   BACKBONE|DICT|INTERRES
    75   39   40 1    
    76   39  105 1    
    77   40   41 1    
    78   40   42 1    
    79   40  106 1    
    80   41  107 1    
    81   41  108 1    
    82   41  109 1    
    83   42   43 2    
    84   42   44 am   BACKBONE|DICT|INTERRES
    85   44   45 1    
    86   44  110 1    
    87   45   46 1    
    88   45   47 1    
    89   45  111 1    
    90   46  112 1    
    91   46  113 1    
    92   46  114 1    
    93   47   48 2    
    94   47   49 am   BACKBONE|DICT|INTERRES
    95   49   50 1    
    96   49  115 1    
    97   50   51 1    
    98   50   52 1    
    99   50  116 1    
   100   51  117 1    
   101   51  118 1    
   102   51  119 1    
   103   52   53 2    
   104   52   54 am   BACKBONE|DICT|INTERRES
   105   54   55 1    
   106   54  120 1    
   107   55   56 1    
   108   55   57 1    
   109   55  121 1    
   110   56  122 1    
   111   56  123 1    
   112   56  124 1    
   113   57   58 2    
   114   57   59 am   BACKBONE|DICT|INTERRES
   115   59   60 1    
   116   59  125 1    
   117   60   61 1    
   118   60   62 1    
   119   60  126 1    
   120   61  127 1    
   121   61  128 1    
   122   61  129 1    
   123   62   63 2    
   124   62   64 am   BACKBONE|DICT|INTERRES
   125   64   65 1    
   126   64  130 1    
   127   65   66 1    
   128   65   69 1    
   129   65  131 1    
   130   66   67 am   BACKBONE|DICT|INTERRES
   131   66   68 2    
   132   67  132 1    
   133   67  133 1    
   134   69   70 1    
   135   69  134 1    
   136   69  135 1    
   137   70   71 1    
   138   71  136 1    
   139   71  137 1    
@<TRIPOS>SUBSTRUCTURE
     1 UNK         1 GROUP             0       ****    0 ROOT    
