@<TRIPOS>MOLECULE
3R137
137   139    1
SMALL
USER_CHARGES


@<TRIPOS>ATOM
      1 CA         23.8050   -4.0577   -0.6785 C.3       0 UNK        -0.2020 
      2 C          25.0828   -3.2486   -0.5147 C.2       0 UNK         0.4855 
      3 O          25.0797   -2.2314    0.1804 O.2       0 UNK        -0.5197 
      4 N          26.1763   -3.6991   -1.1448 N.am      1 UNK        -0.4892 
      5 CA         27.4937   -3.0536   -1.1522 C.3       1 UNK         0.0835 
      6 C6         28.5341   -3.9628   -1.8489 C.3       12 UNK        -0.0855 
      7 S7         30.2554   -3.3670   -1.7357 S.3       12 UNK        -0.2931 
      8 C8         31.0993   -4.5086   -2.8821 C.3       12 UNK         0.0378 
      9 C9         30.8074   -4.1762   -4.3400 C.ar      12 UNK        -0.0802 
     10 C10        31.5951   -3.2392   -5.0176 C.ar      12 UNK        -0.0944 
     11 C11        31.3323   -2.9183   -6.3568 C.ar      12 UNK        -0.0787 
     12 C12        30.2528   -3.5350   -6.9957 C.ar      12 UNK        -0.0862 
     13 C13        29.4504   -4.4683   -6.3334 C.ar      12 UNK        -0.0733 
     14 C14        29.7570   -4.8088   -5.0127 C.ar      12 UNK        -0.0832 
     15 C15        28.2764   -5.1030   -7.0791 C.3       12 UNK         0.0240 
     16 S16        26.7552   -5.3481   -6.0910 S.3       12 UNK        -0.2522 
     17 C17        26.4379   -3.7179   -5.3343 C.3       12 UNK        -0.0967 
     18 CA         25.9935   -2.6137   -6.3320 C.3       5 UNK         0.0660 
     19 N          24.8772   -1.8136   -5.8149 N.am      5 UNK        -0.4015 
     20 C          24.1732   -0.9154   -6.5156 C.2       4 UNK         0.4946 
     21 O          24.4259   -0.6093   -7.6809 O.2       4 UNK        -0.5353 
     22 CA         22.9616   -0.2539   -5.8311 C.3       4 UNK         0.0277 
     23 CB         21.7304   -1.1796   -5.8930 C.3       4 UNK        -0.1981 
     24 N          23.1792    0.2476   -4.4657 N.am      4 UNK        -0.4209 
     25 C          23.4577   -0.4388   -3.3498 C.2       3 UNK         0.4942 
     26 O          23.6685   -1.6533   -3.3150 O.2       3 UNK        -0.5208 
     27 CA         23.4993    0.3740   -2.0481 C.3       3 UNK         0.0250 
     28 CB         22.4768   -0.1532   -1.0280 C.3       3 UNK        -0.1990 
     29 N          24.8405    0.3133   -1.4764 N.am      3 UNK        -0.4232 
     30 C          25.8592    1.0860   -1.8793 C.2       2 UNK         0.4993 
     31 O          25.7414    1.9993   -2.6972 O.2       2 UNK        -0.5286 
     32 CA         27.2484    0.7912   -1.2847 C.3       2 UNK         0.0209 
     33 CB         27.4993    1.6677   -0.0472 C.3       2 UNK        -0.1931 
     34 N          27.4523   -0.6154   -0.9294 N.am      2 UNK        -0.4546 
     35 C          27.3967   -1.6472   -1.7841 C.2       1 UNK         0.5154 
     36 O          27.2182   -1.5259   -2.9988 O.2       1 UNK        -0.5181 
     37 C          27.1823   -1.7278   -6.7472 C.2       5 UNK         0.5014 
     38 O          27.6217   -1.7963   -7.8962 O.2       5 UNK        -0.5248 
     39 N          27.6658   -0.9049   -5.8030 N.am      6 UNK        -0.4434 
     40 CA         28.8638   -0.0677   -5.9257 C.3       6 UNK         0.0363 
     41 CB         29.0488    0.7538   -4.6447 C.3       6 UNK        -0.1936 
     42 C          28.9124    0.8525   -7.1537 C.2       6 UNK         0.5081 
     43 O          30.0025    1.1175   -7.6619 O.2       6 UNK        -0.5248 
     44 N          27.7402    1.2850   -7.6348 N.am      7 UNK        -0.4718 
     45 CA         27.5636    2.0992   -8.8386 C.3       7 UNK         0.0273 
     46 CB         26.0864    2.5096   -8.9481 C.3       7 UNK        -0.1935 
     47 C          28.0330    1.4230  -10.1420 C.2       7 UNK         0.5018 
     48 O          28.2594    2.1323  -11.1224 O.2       7 UNK        -0.5186 
     49 N          28.1908    0.0891  -10.1410 N.am      8 UNK        -0.4240 
     50 CA         28.6701   -0.6947  -11.2834 C.3       8 UNK         0.0235 
     51 CB         28.5137   -2.1933  -10.9798 C.3       8 UNK        -0.2000 
     52 C          30.1201   -0.3837  -11.6997 C.2       8 UNK         0.4941 
     53 O          30.4365   -0.5271  -12.8817 O.2       8 UNK        -0.5273 
     54 N          30.9693    0.0297  -10.7467 N.am      9 UNK        -0.4262 
     55 CA         32.3743    0.3793  -10.9967 C.3       9 UNK         0.0264 
     56 CB         33.2658   -0.8621  -10.8024 C.3       9 UNK        -0.1955 
     57 C          32.8615    1.5741  -10.1576 C.2       9 UNK         0.5031 
     58 O          34.0702    1.8057  -10.1024 O.2       9 UNK        -0.5390 
     59 N          31.9323    2.3095   -9.5278 N.am      10 UNK        -0.4204 
     60 CA         32.1571    3.4431   -8.6215 C.3       10 UNK         0.0237 
     61 CB         32.7185    4.6598   -9.3891 C.3       10 UNK        -0.1985 
     62 C          32.9974    3.0600   -7.3857 C.2       10 UNK         0.4970 
     63 O          33.9497    3.7644   -7.0427 O.2       10 UNK        -0.4914 
     64 N          32.6287    1.9429   -6.7451 N.am      11 UNK        -0.4285 
     65 CA         33.2310    1.4679   -5.4896 C.3       11 UNK         0.1007 
     66 C          32.9059    2.3922   -4.2816 C.2       11 UNK         0.5703 
     67 N          33.7317    2.3639   -3.2441 N.am      11 UNK        -0.7361 
     68 O          31.9067    3.1088   -4.2589 O.2       11 UNK        -0.4986 
     69 C69        32.8513   -0.0053   -5.1836 C.3       12 UNK        -0.0947 
     70 S70        33.6133   -1.1810   -6.3512 S.3       12 UNK        -0.2240 
     71 C71        32.1630   -1.9240   -7.1744 C.3       12 UNK         0.0194 
     72 H72        23.1145   -3.5376   -1.3416 H         1 UNK         0.0906 
     73 H73        23.9999   -5.0444   -1.0979 H         1 UNK         0.0906 
     74 H74        23.3171   -4.1918    0.2866 H         1 UNK         0.0906 
     75 H75        26.0983   -4.5289   -1.7147 H         1 UNK         0.3140 
     76 H76        27.8014   -2.9431   -0.1100 H         1 UNK         0.1085 
     77 H77        28.5067   -4.9593   -1.4048 H         1 UNK         0.0836 
     78 H78        28.2658   -4.0949   -2.8931 H         1 UNK         0.0836 
     79 H79        32.1741   -4.4532   -2.7027 H         1 UNK         0.0731 
     80 H80        30.8089   -5.5361   -2.6570 H         1 UNK         0.0731 
     81 H81        32.4116   -2.7699   -4.4889 H         1 UNK         0.1312 
     82 H82        30.0307   -3.2794   -8.0226 H         1 UNK         0.1406 
     83 H83        29.1589   -5.5491   -4.4995 H         1 UNK         0.1631 
     84 H84        28.5972   -6.0727   -7.4614 H         1 UNK         0.0717 
     85 H85        28.0153   -4.5058   -7.9540 H         1 UNK         0.0717 
     86 H86        25.6616   -3.8819   -4.5848 H         1 UNK         0.0934 
     87 H87        27.3141   -3.4196   -4.7616 H         1 UNK         0.0934 
     88 H88        25.6203   -3.0948   -7.2388 H         1 UNK         0.0739 
     89 H89        24.5918   -1.9717   -4.8497 H         1 UNK         0.3093 
     90 H90        22.7257    0.6311   -6.4249 H         1 UNK         0.0818 
     91 H91        20.8394   -0.6801   -5.5127 H         1 UNK         0.0819 
     92 H92        21.5192   -1.4787   -6.9207 H         1 UNK         0.0819 
     93 H93        21.8749   -2.0925   -5.3142 H         1 UNK         0.0819 
     94 H94        23.0860    1.2502   -4.3723 H         1 UNK         0.3041 
     95 H95        23.2464    1.4153   -2.2608 H         1 UNK         0.0784 
     96 H96        21.4648   -0.1080   -1.4324 H         1 UNK         0.0793 
     97 H97        22.6711   -1.1898   -0.7538 H         1 UNK         0.0793 
     98 H98        22.4884    0.4403   -0.1137 H         1 UNK         0.0793 
     99 H99        25.0295   -0.4607   -0.8462 H         1 UNK         0.3024 
    100 H100       27.9887    1.0549   -2.0396 H         1 UNK         0.1171 
    101 H101       26.8040    1.4352    0.7605 H         1 UNK         0.0786 
    102 H102       27.3782    2.7251   -0.2873 H         1 UNK         0.0786 
    103 H103       28.5130    1.5385    0.3326 H         1 UNK         0.0786 
    104 H104       27.5563   -0.8156    0.0551 H         1 UNK         0.2977 
    105 H105       27.2776   -0.9821   -4.8653 H         1 UNK         0.3127 
    106 H106       29.7057   -0.7508   -6.0130 H         1 UNK         0.0770 
    107 H107       28.1588    1.3403   -4.4143 H         1 UNK         0.0814 
    108 H108       29.8808    1.4515   -4.7383 H         1 UNK         0.0814 
    109 H109       29.2683    0.1070   -3.7956 H         1 UNK         0.0814 
    110 H110       26.8985    0.9721   -7.1723 H         1 UNK         0.2983 
    111 H111       28.1637    3.0032   -8.7144 H         1 UNK         0.0947 
    112 H112       25.9209    3.1504   -9.8154 H         1 UNK         0.0806 
    113 H113       25.7615    3.0671   -8.0694 H         1 UNK         0.0806 
    114 H114       25.4349    1.6411   -9.0555 H         1 UNK         0.0806 
    115 H115       27.9688   -0.4307   -9.2950 H         1 UNK         0.3000 
    116 H116       28.0304   -0.4533  -12.1350 H         1 UNK         0.0850 
    117 H117       28.8103   -2.7997  -11.8367 H         1 UNK         0.0810 
    118 H118       27.4793   -2.4458  -10.7458 H         1 UNK         0.0810 
    119 H119       29.1309   -2.4985  -10.1346 H         1 UNK         0.0810 
    120 H120       30.6372    0.0945   -9.7928 H         1 UNK         0.3040 
    121 H121       32.4782    0.7048  -12.0340 H         1 UNK         0.0766 
    122 H122       34.2871   -0.6644  -11.1304 H         1 UNK         0.0812 
    123 H123       33.3167   -1.1568   -9.7560 H         1 UNK         0.0812 
    124 H124       32.9028   -1.7130  -11.3789 H         1 UNK         0.0812 
    125 H125       30.9670    2.0253   -9.6143 H         1 UNK         0.3205 
    126 H126       31.1748    3.7246   -8.2386 H         1 UNK         0.0754 
    127 H127       32.7768    5.5361   -8.7424 H         1 UNK         0.0769 
    128 H128       32.0819    4.9234  -10.2337 H         1 UNK         0.0769 
    129 H129       33.7222    4.4715   -9.7716 H         1 UNK         0.0769 
    130 H130       31.7918    1.4638   -7.0628 H         1 UNK         0.2981 
    131 H131       34.3138    1.5096   -5.6248 H         1 UNK         0.0541 
    132 H132       34.5515    1.7772   -3.2443 H         1 UNK         0.3459 
    133 H133       33.5342    2.9478   -2.4467 H         1 UNK         0.3459 
    134 H134       31.7700   -0.1324   -5.1740 H         1 UNK         0.0612 
    135 H135       33.1941   -0.2934   -4.1882 H         1 UNK         0.0612 
    136 H136       31.5220   -1.1259   -7.5486 H         1 UNK         0.0624 
    137 H137       32.5307   -2.4571   -8.0512 H         1 UNK         0.0624 
@<TRIPOS>BOND
     1    1    2 1    
     2    1   72 1    
     3    1   73 1    
     4    1   74 1    
     5    2    3 2    
     6    2    4 am   BACKBONE|DICT|INTERRES
     7    4    5 1    
     8    4   75 1    
     9    5    6 1    
    10    5   35 1    
    11    5   76 1    
    12    6    7 1    
    13    6   77 1    
    14    6   78 1    
    15    7    8 1    
    16    8    9 1    
    17    8   79 1    
    18    8   80 1    
    19    9   10 ar   
    20    9   14 ar   
    21   10   11 ar   
    22   10   81 1    
    23   11   12 ar   
    24   11   71 1    
    25   12   13 ar   
    26   12   82 1    
    27   13   14 ar   
    28   13   15 1    
    29   14   83 1    
    30   15   16 1    
    31   15   84 1    
    32   15   85 1    
    33   16   17 1    
    34   17   18 1    
    35   17   86 1    
    36   17   87 1    
    37   18   19 1    
    38   18   37 1    
    39   18   88 1    
    40   19   20 am   BACKBONE|DICT|INTERRES
    41   19   89 1    
    42   20   21 2    
    43   20   22 1    
    44   22   23 1    
    45   22   24 1    
    46   22   90 1    
    47   23   91 1    
    48   23   92 1    
    49   23   93 1    
    50   24   25 am   BACKBONE|DICT|INTERRES
    51   24   94 1    
    52   25   26 2    
    53   25   27 1    
    54   27   28 1    
    55   27   29 1    
    56   27   95 1    
    57   28   96 1    
    58   28   97 1    
    59   28   98 1    
    60   29   30 am   BACKBONE|DICT|INTERRES
    61   29   99 1    
    62   30   31 2    
    63   30   32 1    
    64   32   33 1    
    65   32   34 1    
    66   32  100 1    
    67   33  101 1    
    68   33  102 1    
    69   33  103 1    
    70   34   35 am   BACKBONE|DICT|INTERRES
    71   34  104 1    
    72   35   36 2    
    73   37   38 2    
    74   37   39 am   BACKBONE|DICT|INTERRES
    75   39   40 1    
    76   39  105 1    
    77   40   41 1    
    78   40   42 1    
    79   40  106 1    
    80   41  107 1    
    81   41  108 1    
    82   41  109 1    
    83   42   43 2    
    84   42   44 am   BACKBONE|DICT|INTERRES
    85   44   45 1    
    86   44  110 1    
    87   45   46 1    
    88   45   47 1    
    89   45  111 1    
    90   46  112 1    
    91   46  113 1    
    92   46  114 1    
    93   47   48 2    
    94   47   49 am   BACKBONE|DICT|INTERRES
    95   49   50 1    
    96   49  115 1    
    97   50   51 1    
    98   50   52 1    
    99   50  116 1    
   100   51  117 1    
   101   51  118 1    
   102   51  119 1    
   103   52   53 2    
   104   52   54 am   BACKBONE|DICT|INTERRES
   105   54   55 1    
   106   54  120 1    
   107   55   56 1    
   108   55   57 1    
   109   55  121 1    
   110   56  122 1    
   111   56  123 1    
   112   56  124 1    
   113   57   58 2    
   114   57   59 am   BACKBONE|DICT|INTERRES
   115   59   60 1    
   116   59  125 1    
   117   60   61 1    
   118   60   62 1    
   119   60  126 1    
   120   61  127 1    
   121   61  128 1    
   122   61  129 1    
   123   62   63 2    
   124   62   64 am   BACKBONE|DICT|INTERRES
   125   64   65 1    
   126   64  130 1    
   127   65   66 1    
   128   65   69 1    
   129   65  131 1    
   130   66   67 am   BACKBONE|DICT|INTERRES
   131   66   68 2    
   132   67  132 1    
   133   67  133 1    
   134   69   70 1    
   135   69  134 1    
   136   69  135 1    
   137   70   71 1    
   138   71  136 1    
   139   71  137 1    
@<TRIPOS>SUBSTRUCTURE
     1 UNK         1 GROUP             0       ****    0 ROOT    
