@<TRIPOS>MOLECULE
3R137
137   139    1
SMALL
USER_CHARGES


@<TRIPOS>ATOM
      1 CA         28.3761    0.7835    2.1583 C.3       0 UNK        -0.2020 
      2 C          28.4133   -0.7425    2.1420 C.2       0 UNK         0.4855 
      3 O          28.3872   -1.3565    3.2065 O.2       0 UNK        -0.5197 
      4 N          28.4804   -1.4037    0.9773 N.am      1 UNK        -0.4892 
      5 CA         28.4588   -0.8387   -0.3800 C.3       1 UNK         0.0835 
      6 C6         28.9139   -1.8803   -1.4346 C.3       12 UNK        -0.0855 
      7 S7         27.9554   -3.4407   -1.3976 S.3       12 UNK        -0.2931 
      8 C8         29.2609   -4.6989   -1.5677 C.3       12 UNK         0.0378 
      9 C9         29.8944   -4.6635   -2.9507 C.ar      12 UNK        -0.0802 
     10 C10        31.1282   -4.0341   -3.1446 C.ar      12 UNK        -0.0944 
     11 C11        31.6998   -3.9742   -4.4181 C.ar      12 UNK        -0.0787 
     12 C12        31.0394   -4.5639   -5.4982 C.ar      12 UNK        -0.0862 
     13 C13        29.8059   -5.1961   -5.3176 C.ar      12 UNK        -0.0733 
     14 C14        29.2401   -5.2498   -4.0398 C.ar      12 UNK        -0.0832 
     15 C15        29.0720   -5.7806   -6.5174 C.3       12 UNK         0.0240 
     16 S16        27.6831   -4.7290   -7.0590 S.3       12 UNK        -0.2522 
     17 C17        28.4447   -3.0683   -7.0451 C.3       12 UNK        -0.0967 
     18 CA         27.6477   -1.9890   -7.8168 C.3       5 UNK         0.0660 
     19 N          26.2217   -2.0314   -7.4886 N.am      5 UNK        -0.4015 
     20 C          25.2683   -1.2037   -7.9334 C.2       4 UNK         0.4946 
     21 O          25.4580   -0.3486   -8.7967 O.2       4 UNK        -0.5353 
     22 CA         23.8845   -1.2984   -7.2619 C.3       4 UNK         0.0277 
     23 CB         22.8778   -1.9707   -8.2086 C.3       4 UNK        -0.1981 
     24 N          23.8729   -1.9943   -5.9660 N.am      4 UNK        -0.4209 
     25 C          24.5890   -1.6544   -4.8833 C.2       3 UNK         0.4942 
     26 O          25.3846   -0.7110   -4.8529 O.2       3 UNK        -0.5208 
     27 CA         24.4620   -2.6006   -3.6784 C.3       3 UNK         0.0250 
     28 CB         25.3740   -3.8238   -3.8786 C.3       3 UNK        -0.1990 
     29 N          24.8102   -1.9493   -2.4145 N.am      3 UNK        -0.4232 
     30 C          24.0894   -0.9869   -1.8200 C.2       2 UNK         0.4993 
     31 O          23.0158   -0.5717   -2.2597 O.2       2 UNK        -0.5286 
     32 CA         24.6254   -0.4044   -0.4966 C.3       2 UNK         0.0209 
     33 CB         23.7353   -0.8312    0.6832 C.3       2 UNK        -0.1931 
     34 N          26.0082   -0.7925   -0.2050 N.am      2 UNK        -0.4546 
     35 C          27.0915   -0.2313   -0.7589 C.2       1 UNK         0.5154 
     36 O          27.0452    0.7296   -1.5253 O.2       1 UNK        -0.5181 
     37 C          28.2782   -0.6050   -7.5433 C.2       5 UNK         0.5014 
     38 O          29.1358   -0.1671   -8.3120 O.2       5 UNK        -0.5248 
     39 N          27.8381    0.0637   -6.4648 N.am      6 UNK        -0.4434 
     40 CA         28.2814    1.4091   -6.0993 C.3       6 UNK         0.0363 
     41 CB         27.9170    1.6926   -4.6350 C.3       6 UNK        -0.1936 
     42 C          27.7001    2.4876   -7.0271 C.2       6 UNK         0.5081 
     43 O          28.4097    3.4343   -7.3633 O.2       6 UNK        -0.5248 
     44 N          26.4432    2.3114   -7.4616 N.am      7 UNK        -0.4718 
     45 CA         25.7765    3.1782   -8.4406 C.3       7 UNK         0.0273 
     46 CB         24.2631    2.9079   -8.4330 C.3       7 UNK        -0.1935 
     47 C          26.3615    3.0105   -9.8537 C.2       7 UNK         0.5018 
     48 O          26.5087    3.9989  -10.5726 O.2       7 UNK        -0.5186 
     49 N          26.7323    1.7701  -10.2012 N.am      8 UNK        -0.4240 
     50 CA         27.4793    1.4110  -11.4105 C.3       8 UNK         0.0235 
     51 CB         27.3786   -0.1091  -11.6201 C.3       8 UNK        -0.2000 
     52 C          28.9581    1.8504  -11.3797 C.2       8 UNK         0.4941 
     53 O          29.6142    1.7952  -12.4206 O.2       8 UNK        -0.5273 
     54 N          29.4509    2.2673  -10.2031 N.am      9 UNK        -0.4262 
     55 CA         30.8109    2.7213   -9.9009 C.3       9 UNK         0.0264 
     56 CB         31.1396    4.0268  -10.6566 C.3       9 UNK        -0.1955 
     57 C          31.8720    1.6215  -10.0943 C.2       9 UNK         0.5031 
     58 O          32.9596    1.8999  -10.6035 O.2       9 UNK        -0.5390 
     59 N          31.5526    0.3935   -9.6596 N.am      10 UNK        -0.4204 
     60 CA         32.4615   -0.7584   -9.6914 C.3       10 UNK         0.0237 
     61 CB         31.6624   -2.0429   -9.4196 C.3       10 UNK        -0.1985 
     62 C          33.6248   -0.6401   -8.6892 C.2       10 UNK         0.4970 
     63 O          34.7005   -1.1819   -8.9466 O.2       10 UNK        -0.4914 
     64 N          33.3844    0.0557   -7.5731 N.am      11 UNK        -0.4285 
     65 CA         34.3282    0.2587   -6.4643 C.3       11 UNK         0.1007 
     66 C          34.1396    1.6246   -5.7424 C.2       11 UNK         0.5703 
     67 N          33.4588    2.5970   -6.3396 N.am      11 UNK        -0.7361 
     68 O          34.6349    1.8228   -4.6355 O.2       11 UNK        -0.4986 
     69 C69        34.3857   -0.9651   -5.5053 C.3       12 UNK        -0.0947 
     70 S70        32.7521   -1.4717   -4.8647 S.3       12 UNK        -0.2240 
     71 C71        33.0198   -3.2557   -4.6377 C.3       12 UNK         0.0194 
     72 H72        29.1548    1.2113    1.5285 H         1 UNK         0.0906 
     73 H73        27.4068    1.1510    1.8232 H         1 UNK         0.0906 
     74 H74        28.5375    1.1549    3.1702 H         1 UNK         0.0906 
     75 H75        28.5100   -2.4138    1.0037 H         1 UNK         0.3140 
     76 H76        29.1801   -0.0200   -0.4151 H         1 UNK         0.1085 
     77 H77        28.8667   -1.4645   -2.4436 H         1 UNK         0.0836 
     78 H78        29.9671   -2.1065   -1.2650 H         1 UNK         0.0836 
     79 H79        28.8260   -5.6840   -1.3926 H         1 UNK         0.0731 
     80 H80        30.0129   -4.5560   -0.7900 H         1 UNK         0.0731 
     81 H81        31.6377   -3.5731   -2.3096 H         1 UNK         0.1312 
     82 H82        31.4759   -4.5077   -6.4862 H         1 UNK         0.1406 
     83 H83        28.2780   -5.7236   -3.8981 H         1 UNK         0.1631 
     84 H84        28.6918   -6.7723   -6.2683 H         1 UNK         0.0717 
     85 H85        29.7569   -5.9183   -7.3556 H         1 UNK         0.0717 
     86 H86        28.5688   -2.7797   -5.9983 H         1 UNK         0.0934 
     87 H87        29.4494   -3.1487   -7.4610 H         1 UNK         0.0934 
     88 H88        27.7355   -2.1900   -8.8859 H         1 UNK         0.0739 
     89 H89        25.9605   -2.7251   -6.8044 H         1 UNK         0.3093 
     90 H90        23.5525   -0.2741   -7.0808 H         1 UNK         0.0818 
     91 H91        22.8431   -1.4566   -9.1705 H         1 UNK         0.0819 
     92 H92        23.1403   -3.0110   -8.4053 H         1 UNK         0.0819 
     93 H93        21.8683   -1.9490   -7.7975 H         1 UNK         0.0819 
     94 H94        23.2641   -2.7983   -5.9021 H         1 UNK         0.3041 
     95 H95        23.4262   -2.9394   -3.6069 H         1 UNK         0.0784 
     96 H96        25.0855   -4.3936   -4.7628 H         1 UNK         0.0793 
     97 H97        26.4175   -3.5323   -4.0089 H         1 UNK         0.0793 
     98 H98        25.3210   -4.5045   -3.0286 H         1 UNK         0.0793 
     99 H99        25.6920   -2.2134   -1.9984 H         1 UNK         0.3024 
    100 H100       24.5779    0.6836   -0.5856 H         1 UNK         0.1171 
    101 H101       24.0666   -0.3742    1.6159 H         1 UNK         0.0786 
    102 H102       22.7006   -0.5238    0.5244 H         1 UNK         0.0786 
    103 H103       23.7364   -1.9134    0.8192 H         1 UNK         0.0786 
    104 H104       26.1453   -1.5759    0.4187 H         1 UNK         0.2977 
    105 H105       27.1036   -0.3425   -5.8913 H         1 UNK         0.3127 
    106 H106       29.3695    1.4467   -6.1882 H         1 UNK         0.0770 
    107 H107       26.8402    1.6463   -4.4665 H         1 UNK         0.0814 
    108 H108       28.2527    2.6853   -4.3326 H         1 UNK         0.0814 
    109 H109       28.3888    0.9738   -3.9649 H         1 UNK         0.0814 
    110 H110       25.9435    1.4836   -7.1699 H         1 UNK         0.2983 
    111 H111       25.9371    4.2159   -8.1389 H         1 UNK         0.0947 
    112 H112       23.7465    3.5813   -9.1183 H         1 UNK         0.0806 
    113 H113       23.8364    3.0656   -7.4424 H         1 UNK         0.0806 
    114 H114       24.0275    1.8895   -8.7423 H         1 UNK         0.0806 
    115 H115       26.4735    1.0044   -9.5815 H         1 UNK         0.3000 
    116 H116       27.0086    1.9091  -12.2606 H         1 UNK         0.0850 
    117 H117       27.8625   -0.4094  -12.5504 H         1 UNK         0.0810 
    118 H118       26.3398   -0.4358  -11.6739 H         1 UNK         0.0810 
    119 H119       27.8606   -0.6575  -10.8106 H         1 UNK         0.0810 
    120 H120       28.8227    2.2484   -9.4108 H         1 UNK         0.3040 
    121 H121       30.8149    2.9552   -8.8354 H         1 UNK         0.0766 
    122 H122       31.2103    3.8664  -11.7328 H         1 UNK         0.0812 
    123 H123       32.0939    4.4396  -10.3271 H         1 UNK         0.0812 
    124 H124       30.3800    4.7882  -10.4795 H         1 UNK         0.0812 
    125 H125       30.6324    0.2399   -9.2447 H         1 UNK         0.3205 
    126 H126       32.8889   -0.8245  -10.6942 H         1 UNK         0.0754 
    127 H127       32.2936   -2.9260   -9.5280 H         1 UNK         0.0769 
    128 H128       30.8281   -2.1504  -10.1133 H         1 UNK         0.0769 
    129 H129       31.2621   -2.0520   -8.4058 H         1 UNK         0.0769 
    130 H130       32.4606    0.4343   -7.4279 H         1 UNK         0.2981 
    131 H131       35.3219    0.3529   -6.9056 H         1 UNK         0.0541 
    132 H132       33.1288    2.4958   -7.2841 H         1 UNK         0.3459 
    133 H133       33.3522    3.4780   -5.8617 H         1 UNK         0.3459 
    134 H134       35.0536   -0.7795   -4.6625 H         1 UNK         0.0612 
    135 H135       34.8256   -1.8057   -6.0432 H         1 UNK         0.0612 
    136 H136       33.6859   -3.4174   -3.7889 H         1 UNK         0.0624 
    137 H137       33.5240   -3.6683   -5.5131 H         1 UNK         0.0624 
@<TRIPOS>BOND
     1    1    2 1    
     2    1   72 1    
     3    1   73 1    
     4    1   74 1    
     5    2    3 2    
     6    2    4 am   BACKBONE|DICT|INTERRES
     7    4    5 1    
     8    4   75 1    
     9    5    6 1    
    10    5   35 1    
    11    5   76 1    
    12    6    7 1    
    13    6   77 1    
    14    6   78 1    
    15    7    8 1    
    16    8    9 1    
    17    8   79 1    
    18    8   80 1    
    19    9   10 ar   
    20    9   14 ar   
    21   10   11 ar   
    22   10   81 1    
    23   11   12 ar   
    24   11   71 1    
    25   12   13 ar   
    26   12   82 1    
    27   13   14 ar   
    28   13   15 1    
    29   14   83 1    
    30   15   16 1    
    31   15   84 1    
    32   15   85 1    
    33   16   17 1    
    34   17   18 1    
    35   17   86 1    
    36   17   87 1    
    37   18   19 1    
    38   18   37 1    
    39   18   88 1    
    40   19   20 am   BACKBONE|DICT|INTERRES
    41   19   89 1    
    42   20   21 2    
    43   20   22 1    
    44   22   23 1    
    45   22   24 1    
    46   22   90 1    
    47   23   91 1    
    48   23   92 1    
    49   23   93 1    
    50   24   25 am   BACKBONE|DICT|INTERRES
    51   24   94 1    
    52   25   26 2    
    53   25   27 1    
    54   27   28 1    
    55   27   29 1    
    56   27   95 1    
    57   28   96 1    
    58   28   97 1    
    59   28   98 1    
    60   29   30 am   BACKBONE|DICT|INTERRES
    61   29   99 1    
    62   30   31 2    
    63   30   32 1    
    64   32   33 1    
    65   32   34 1    
    66   32  100 1    
    67   33  101 1    
    68   33  102 1    
    69   33  103 1    
    70   34   35 am   BACKBONE|DICT|INTERRES
    71   34  104 1    
    72   35   36 2    
    73   37   38 2    
    74   37   39 am   BACKBONE|DICT|INTERRES
    75   39   40 1    
    76   39  105 1    
    77   40   41 1    
    78   40   42 1    
    79   40  106 1    
    80   41  107 1    
    81   41  108 1    
    82   41  109 1    
    83   42   43 2    
    84   42   44 am   BACKBONE|DICT|INTERRES
    85   44   45 1    
    86   44  110 1    
    87   45   46 1    
    88   45   47 1    
    89   45  111 1    
    90   46  112 1    
    91   46  113 1    
    92   46  114 1    
    93   47   48 2    
    94   47   49 am   BACKBONE|DICT|INTERRES
    95   49   50 1    
    96   49  115 1    
    97   50   51 1    
    98   50   52 1    
    99   50  116 1    
   100   51  117 1    
   101   51  118 1    
   102   51  119 1    
   103   52   53 2    
   104   52   54 am   BACKBONE|DICT|INTERRES
   105   54   55 1    
   106   54  120 1    
   107   55   56 1    
   108   55   57 1    
   109   55  121 1    
   110   56  122 1    
   111   56  123 1    
   112   56  124 1    
   113   57   58 2    
   114   57   59 am   BACKBONE|DICT|INTERRES
   115   59   60 1    
   116   59  125 1    
   117   60   61 1    
   118   60   62 1    
   119   60  126 1    
   120   61  127 1    
   121   61  128 1    
   122   61  129 1    
   123   62   63 2    
   124   62   64 am   BACKBONE|DICT|INTERRES
   125   64   65 1    
   126   64  130 1    
   127   65   66 1    
   128   65   69 1    
   129   65  131 1    
   130   66   67 am   BACKBONE|DICT|INTERRES
   131   66   68 2    
   132   67  132 1    
   133   67  133 1    
   134   69   70 1    
   135   69  134 1    
   136   69  135 1    
   137   70   71 1    
   138   71  136 1    
   139   71  137 1    
@<TRIPOS>SUBSTRUCTURE
     1 UNK         1 GROUP             0       ****    0 ROOT    
