@<TRIPOS>MOLECULE
3R137
137   139    1
SMALL
USER_CHARGES


@<TRIPOS>ATOM
      1 CA         27.4105   -2.4701   -4.6750 C.3       0 UNK        -0.2020 
      2 C          27.2527   -3.5663   -3.6353 C.2       0 UNK         0.4855 
      3 O          26.6714   -4.6119   -3.9290 O.2       0 UNK        -0.5197 
      4 N          27.7591   -3.3404   -2.4176 N.am      1 UNK        -0.4892 
      5 CA         27.6173   -4.2432   -1.2722 C.3       1 UNK         0.0835 
      6 C6         28.5622   -3.8546   -0.1096 C.3       12 UNK        -0.0855 
      7 S7         30.3064   -4.1869   -0.5284 S.3       12 UNK        -0.2931 
      8 C8         31.0541   -2.5267   -0.4602 C.3       12 UNK         0.0378 
      9 C9         30.6453   -1.6359   -1.6274 C.ar      12 UNK        -0.0802 
     10 C10        30.9272   -2.0187   -2.9424 C.ar      12 UNK        -0.0944 
     11 C11        30.6069   -1.1808   -4.0148 C.ar      12 UNK        -0.0787 
     12 C12        30.0087    0.0594   -3.7643 C.ar      12 UNK        -0.0862 
     13 C13        29.7311    0.4584   -2.4510 C.ar      12 UNK        -0.0733 
     14 C14        30.0402   -0.3985   -1.3901 C.ar      12 UNK        -0.0832 
     15 C15        29.1553    1.8373   -2.1614 C.3       12 UNK         0.0240 
     16 S16        27.3381    1.8079   -2.0093 S.3       12 UNK        -0.2522 
     17 C17        26.8454    2.9281   -3.3623 C.3       12 UNK        -0.0967 
     18 CA         26.4498    2.1222   -4.6234 C.3       5 UNK         0.0660 
     19 N          25.0998    1.5543   -4.5123 N.am      5 UNK        -0.4015 
     20 C          24.6169    0.5466   -5.2496 C.2       4 UNK         0.4946 
     21 O          25.2414    0.0063   -6.1663 O.2       4 UNK        -0.5353 
     22 CA         23.1608    0.1393   -4.9689 C.3       4 UNK         0.0277 
     23 CB         22.2208    0.7928   -5.9957 C.3       4 UNK        -0.1981 
     24 N          22.9719   -1.3119   -4.9990 N.am      4 UNK        -0.4209 
     25 C          23.5276   -2.1666   -4.1310 C.2       3 UNK         0.4942 
     26 O          24.2472   -1.8123   -3.1938 O.2       3 UNK        -0.5208 
     27 CA         23.2157   -3.6575   -4.3545 C.3       3 UNK         0.0250 
     28 CB         23.7659   -4.1537   -5.7047 C.3       3 UNK        -0.1990 
     29 N          23.7869   -4.4726   -3.2811 N.am      3 UNK        -0.4232 
     30 C          23.1779   -4.7385   -2.1162 C.2       2 UNK         0.4993 
     31 O          22.0149   -4.4181   -1.8651 O.2       2 UNK        -0.5286 
     32 CA         23.9868   -5.4974   -1.0472 C.3       2 UNK         0.0209 
     33 CB         23.6267   -6.9924   -1.0614 C.3       2 UNK        -0.1931 
     34 N          25.4336   -5.3515   -1.2242 N.am      2 UNK        -0.4546 
     35 C          26.1424   -4.2874   -0.8235 C.2       1 UNK         0.5154 
     36 O          25.6757   -3.3606   -0.1577 O.2       1 UNK        -0.5181 
     37 C          26.7097    2.9126   -5.9245 C.2       5 UNK         0.5014 
     38 O          27.8329    3.3746   -6.1181 O.2       5 UNK        -0.5248 
     39 N          25.7375    2.9772   -6.8472 N.am      6 UNK        -0.4434 
     40 CA         25.9562    3.3440   -8.2529 C.3       6 UNK         0.0363 
     41 CB         24.6101    3.3424   -8.9939 C.3       6 UNK        -0.1936 
     42 C          26.9647    2.4113   -8.9594 C.2       6 UNK         0.5081 
     43 O          27.6539    2.8448   -9.8828 O.2       6 UNK        -0.5248 
     44 N          27.0812    1.1686   -8.4653 N.am      7 UNK        -0.4718 
     45 CA         28.0980    0.1888   -8.8458 C.3       7 UNK         0.0273 
     46 CB         27.7202   -1.1719   -8.2421 C.3       7 UNK        -0.1935 
     47 C          29.5385    0.5646   -8.4454 C.2       7 UNK         0.5018 
     48 O          30.4596   -0.1015   -8.9175 O.2       7 UNK        -0.5186 
     49 N          29.7456    1.6074   -7.6205 N.am      8 UNK        -0.4240 
     50 CA         31.0745    2.1006   -7.2237 C.3       8 UNK         0.0235 
     51 CB         30.9409    3.2604   -6.2256 C.3       8 UNK        -0.2000 
     52 C          31.9617    2.5183   -8.4089 C.2       8 UNK         0.4941 
     53 O          33.1793    2.3492   -8.3430 O.2       8 UNK        -0.5273 
     54 N          31.3324    2.9989   -9.4908 N.am      9 UNK        -0.4262 
     55 CA         31.9802    3.3034  -10.7678 C.3       9 UNK         0.0264 
     56 CB         30.9813    4.0472  -11.6691 C.3       9 UNK        -0.1955 
     57 C          32.5375    2.0616  -11.4920 C.2       9 UNK         0.5031 
     58 O          33.4486    2.2115  -12.3076 O.2       9 UNK        -0.5390 
     59 N          31.9917    0.8735  -11.1946 N.am      10 UNK        -0.4204 
     60 CA         32.4469   -0.4077  -11.7280 C.3       10 UNK         0.0237 
     61 CB         31.2349   -1.3032  -12.0390 C.3       10 UNK        -0.1985 
     62 C          33.4057   -1.1021  -10.7510 C.2       10 UNK         0.4970 
     63 O          34.4576   -1.5705  -11.1889 O.2       10 UNK        -0.4914 
     64 N          33.0338   -1.1757   -9.4628 N.am      11 UNK        -0.4285 
     65 CA         33.8273   -1.8624   -8.4299 C.3       11 UNK         0.1007 
     66 C          35.1230   -1.1196   -7.9894 C.2       11 UNK         0.5703 
     67 N          35.2314    0.1926   -8.1635 N.am      11 UNK        -0.7361 
     68 O          36.0556   -1.7534   -7.5005 O.2       11 UNK        -0.4986 
     69 C69        32.9561   -2.3736   -7.2457 C.3       12 UNK        -0.0947 
     70 S70        32.6096   -1.1707   -5.9144 S.3       12 UNK        -0.2240 
     71 C71        30.9163   -1.6272   -5.4367 C.3       12 UNK         0.0194 
     72 H72        28.1779   -2.7485   -5.3952 H         1 UNK         0.0906 
     73 H73        26.4751   -2.3204   -5.2124 H         1 UNK         0.0906 
     74 H74        27.6813   -1.5182   -4.2200 H         1 UNK         0.0906 
     75 H75        28.2454   -2.4741   -2.2314 H         1 UNK         0.3140 
     76 H76        27.8961   -5.2471   -1.6014 H         1 UNK         0.1085 
     77 H77        28.3299   -4.4372    0.7842 H         1 UNK         0.0836 
     78 H78        28.4282   -2.8075    0.1690 H         1 UNK         0.0836 
     79 H79        30.8086   -2.0630    0.4966 H         1 UNK         0.0731 
     80 H80        32.1394   -2.6356   -0.4738 H         1 UNK         0.0731 
     81 H81        31.4051   -2.9708   -3.1300 H         1 UNK         0.1312 
     82 H82        29.7741    0.7173   -4.5895 H         1 UNK         0.1406 
     83 H83        29.8356   -0.0842   -0.3752 H         1 UNK         0.1631 
     84 H84        29.4773    2.5342   -2.9356 H         1 UNK         0.0717 
     85 H85        29.5732    2.2223   -1.2300 H         1 UNK         0.0717 
     86 H86        26.0139    3.5485   -3.0237 H         1 UNK         0.0934 
     87 H87        27.6593    3.6296   -3.5542 H         1 UNK         0.0934 
     88 H88        27.1351    1.2744   -4.6999 H         1 UNK         0.0739 
     89 H89        24.5151    1.9501   -3.7903 H         1 UNK         0.3093 
     90 H90        22.8817    0.4871   -3.9718 H         1 UNK         0.0818 
     91 H91        21.1782    0.5469   -5.7932 H         1 UNK         0.0819 
     92 H92        22.3039    1.8801   -5.9692 H         1 UNK         0.0819 
     93 H93        22.4496    0.4730   -7.0134 H         1 UNK         0.0819 
     94 H94        22.4197   -1.6791   -5.7600 H         1 UNK         0.3041 
     95 H95        22.1302   -3.7772   -4.3610 H         1 UNK         0.0784 
     96 H96        23.2963   -3.6362   -6.5417 H         1 UNK         0.0793 
     97 H97        24.8409   -3.9973   -5.7903 H         1 UNK         0.0793 
     98 H98        23.5745   -5.2183   -5.8408 H         1 UNK         0.0793 
     99 H99        24.7714   -4.7015   -3.3813 H         1 UNK         0.3024 
    100 H100       23.7054   -5.0867   -0.0744 H         1 UNK         0.1171 
    101 H101       23.8831   -7.4616   -2.0121 H         1 UNK         0.0786 
    102 H102       22.5567   -7.1370   -0.9049 H         1 UNK         0.0786 
    103 H103       24.1442   -7.5329   -0.2686 H         1 UNK         0.0786 
    104 H104       25.8912   -6.0483   -1.7960 H         1 UNK         0.2977 
    105 H105       24.8444    2.5656   -6.6222 H         1 UNK         0.3127 
    106 H106       26.3676    4.3553   -8.2776 H         1 UNK         0.0770 
    107 H107       24.1448    2.3557   -8.9855 H         1 UNK         0.0814 
    108 H108       24.7406    3.6322  -10.0376 H         1 UNK         0.0814 
    109 H109       23.9099    4.0493   -8.5485 H         1 UNK         0.0814 
    110 H110       26.4549    0.8874   -7.7177 H         1 UNK         0.2983 
    111 H111       28.0855    0.0980   -9.9340 H         1 UNK         0.0947 
    112 H112       28.4418   -1.9429   -8.5167 H         1 UNK         0.0806 
    113 H113       26.7420   -1.5043   -8.5901 H         1 UNK         0.0806 
    114 H114       27.6876   -1.1237   -7.1543 H         1 UNK         0.0806 
    115 H115       28.9498    2.1279   -7.2657 H         1 UNK         0.3000 
    116 H116       31.5852    1.2847   -6.7161 H         1 UNK         0.0850 
    117 H117       30.4108    4.1082   -6.6612 H         1 UNK         0.0810 
    118 H118       30.4054    2.9551   -5.3274 H         1 UNK         0.0810 
    119 H119       31.9218    3.6169   -5.9081 H         1 UNK         0.0810 
    120 H120       30.3267    3.1003   -9.4548 H         1 UNK         0.3040 
    121 H121       32.8228    3.9681  -10.5656 H         1 UNK         0.0766 
    122 H122       30.6462    4.9767  -11.2083 H         1 UNK         0.0812 
    123 H123       30.0994    3.4407  -11.8807 H         1 UNK         0.0812 
    124 H124       31.4362    4.3075  -12.6259 H         1 UNK         0.0812 
    125 H125       31.2888    0.8248  -10.4652 H         1 UNK         0.3205 
    126 H126       32.9845   -0.2478  -12.6652 H         1 UNK         0.0754 
    127 H127       30.5719   -0.8312  -12.7642 H         1 UNK         0.0769 
    128 H128       30.6480   -1.5282  -11.1480 H         1 UNK         0.0769 
    129 H129       31.5550   -2.2550  -12.4651 H         1 UNK         0.0769 
    130 H130       32.1438   -0.7798   -9.1697 H         1 UNK         0.2981 
    131 H131       34.1925   -2.7726   -8.9106 H         1 UNK         0.0541 
    132 H132       34.4446    0.7472   -8.4804 H         1 UNK         0.3459 
    133 H133       36.0808    0.6537   -7.8810 H         1 UNK         0.3459 
    134 H134       32.0143   -2.7694   -7.6293 H         1 UNK         0.0612 
    135 H135       33.4562   -3.2218   -6.7754 H         1 UNK         0.0612 
    136 H136       30.7946   -2.7089   -5.5114 H         1 UNK         0.0624 
    137 H137       30.2101   -1.1866   -6.1404 H         1 UNK         0.0624 
@<TRIPOS>BOND
     1    1    2 1    
     2    1   72 1    
     3    1   73 1    
     4    1   74 1    
     5    2    3 2    
     6    2    4 am   BACKBONE|DICT|INTERRES
     7    4    5 1    
     8    4   75 1    
     9    5    6 1    
    10    5   35 1    
    11    5   76 1    
    12    6    7 1    
    13    6   77 1    
    14    6   78 1    
    15    7    8 1    
    16    8    9 1    
    17    8   79 1    
    18    8   80 1    
    19    9   10 ar   
    20    9   14 ar   
    21   10   11 ar   
    22   10   81 1    
    23   11   12 ar   
    24   11   71 1    
    25   12   13 ar   
    26   12   82 1    
    27   13   14 ar   
    28   13   15 1    
    29   14   83 1    
    30   15   16 1    
    31   15   84 1    
    32   15   85 1    
    33   16   17 1    
    34   17   18 1    
    35   17   86 1    
    36   17   87 1    
    37   18   19 1    
    38   18   37 1    
    39   18   88 1    
    40   19   20 am   BACKBONE|DICT|INTERRES
    41   19   89 1    
    42   20   21 2    
    43   20   22 1    
    44   22   23 1    
    45   22   24 1    
    46   22   90 1    
    47   23   91 1    
    48   23   92 1    
    49   23   93 1    
    50   24   25 am   BACKBONE|DICT|INTERRES
    51   24   94 1    
    52   25   26 2    
    53   25   27 1    
    54   27   28 1    
    55   27   29 1    
    56   27   95 1    
    57   28   96 1    
    58   28   97 1    
    59   28   98 1    
    60   29   30 am   BACKBONE|DICT|INTERRES
    61   29   99 1    
    62   30   31 2    
    63   30   32 1    
    64   32   33 1    
    65   32   34 1    
    66   32  100 1    
    67   33  101 1    
    68   33  102 1    
    69   33  103 1    
    70   34   35 am   BACKBONE|DICT|INTERRES
    71   34  104 1    
    72   35   36 2    
    73   37   38 2    
    74   37   39 am   BACKBONE|DICT|INTERRES
    75   39   40 1    
    76   39  105 1    
    77   40   41 1    
    78   40   42 1    
    79   40  106 1    
    80   41  107 1    
    81   41  108 1    
    82   41  109 1    
    83   42   43 2    
    84   42   44 am   BACKBONE|DICT|INTERRES
    85   44   45 1    
    86   44  110 1    
    87   45   46 1    
    88   45   47 1    
    89   45  111 1    
    90   46  112 1    
    91   46  113 1    
    92   46  114 1    
    93   47   48 2    
    94   47   49 am   BACKBONE|DICT|INTERRES
    95   49   50 1    
    96   49  115 1    
    97   50   51 1    
    98   50   52 1    
    99   50  116 1    
   100   51  117 1    
   101   51  118 1    
   102   51  119 1    
   103   52   53 2    
   104   52   54 am   BACKBONE|DICT|INTERRES
   105   54   55 1    
   106   54  120 1    
   107   55   56 1    
   108   55   57 1    
   109   55  121 1    
   110   56  122 1    
   111   56  123 1    
   112   56  124 1    
   113   57   58 2    
   114   57   59 am   BACKBONE|DICT|INTERRES
   115   59   60 1    
   116   59  125 1    
   117   60   61 1    
   118   60   62 1    
   119   60  126 1    
   120   61  127 1    
   121   61  128 1    
   122   61  129 1    
   123   62   63 2    
   124   62   64 am   BACKBONE|DICT|INTERRES
   125   64   65 1    
   126   64  130 1    
   127   65   66 1    
   128   65   69 1    
   129   65  131 1    
   130   66   67 am   BACKBONE|DICT|INTERRES
   131   66   68 2    
   132   67  132 1    
   133   67  133 1    
   134   69   70 1    
   135   69  134 1    
   136   69  135 1    
   137   70   71 1    
   138   71  136 1    
   139   71  137 1    
@<TRIPOS>SUBSTRUCTURE
     1 UNK         1 GROUP             0       ****    0 ROOT    
