@<TRIPOS>MOLECULE
3R137
137   139    1
SMALL
USER_CHARGES


@<TRIPOS>ATOM
      1 CA         24.7263    0.5198    3.2641 C.3       0 UNK        -0.2020 
      2 C          25.0817    0.4632    1.7859 C.2       0 UNK         0.4855 
      3 O          24.7050    1.3607    1.0322 O.2       0 UNK        -0.5197 
      4 N          25.8075   -0.5828    1.3673 N.am      1 UNK        -0.4892 
      5 CA         26.2190   -0.8189   -0.0229 C.3       1 UNK         0.0835 
      6 C6         27.3123   -1.9157   -0.0919 C.3       12 UNK        -0.0855 
      7 S7         28.2038   -1.9404   -1.6794 S.3       12 UNK        -0.2931 
      8 C8         29.5381   -3.1185   -1.2962 C.3       12 UNK         0.0378 
      9 C9         30.3489   -3.4049   -2.5477 C.ar      12 UNK        -0.0802 
     10 C10        31.5053   -2.6692   -2.8290 C.ar      12 UNK        -0.0944 
     11 C11        32.1838   -2.8584   -4.0371 C.ar      12 UNK        -0.0787 
     12 C12        31.7184   -3.8073   -4.9500 C.ar      12 UNK        -0.0862 
     13 C13        30.5391   -4.5122   -4.6945 C.ar      12 UNK        -0.0733 
     14 C14        29.8820   -4.3413   -3.4743 C.ar      12 UNK        -0.0832 
     15 C15        29.8748   -5.2986   -5.8139 C.3       12 UNK         0.0240 
     16 S16        28.5214   -4.3310   -6.5856 S.3       12 UNK        -0.2522 
     17 C17        29.2445   -2.6519   -6.6798 C.3       12 UNK        -0.0967 
     18 CA         28.2897   -1.5574   -7.2010 C.3       5 UNK         0.0660 
     19 N          27.0456   -1.4988   -6.4241 N.am      5 UNK        -0.4015 
     20 C          26.0212   -0.6647   -6.6501 C.2       4 UNK         0.4946 
     21 O          26.0231    0.1723   -7.5545 O.2       4 UNK        -0.5353 
     22 CA         24.8229   -0.7185   -5.6808 C.3       4 UNK         0.0277 
     23 CB         23.4758   -0.5512   -6.4147 C.3       4 UNK        -0.1981 
     24 N          24.7961   -1.8821   -4.7820 N.am      4 UNK        -0.4209 
     25 C          24.6305   -3.1746   -5.1141 C.2       3 UNK         0.4942 
     26 O          24.5307   -3.5782   -6.2725 O.2       3 UNK        -0.5208 
     27 CA         24.5783   -4.2021   -3.9648 C.3       3 UNK         0.0250 
     28 CB         25.9467   -4.8818   -3.7996 C.3       3 UNK        -0.1990 
     29 N          24.1804   -3.6261   -2.6782 N.am      3 UNK        -0.4232 
     30 C          22.9769   -3.1043   -2.4008 C.2       2 UNK         0.4993 
     31 O          22.0135   -3.1684   -3.1651 O.2       2 UNK        -0.5286 
     32 CA         22.8199   -2.3612   -1.0586 C.3       2 UNK         0.0209 
     33 CB         22.0001   -3.2061   -0.0693 C.3       2 UNK        -0.1931 
     34 N          24.0759   -1.9557   -0.4102 N.am      2 UNK        -0.4546 
     35 C          25.0145   -1.1494   -0.9325 C.2       1 UNK         0.5154 
     36 O          24.9565   -0.6846   -2.0729 O.2       1 UNK        -0.5181 
     37 C          29.0387   -0.2083   -7.2058 C.2       5 UNK         0.5014 
     38 O          29.5696    0.1901   -8.2423 O.2       5 UNK        -0.5248 
     39 N          29.0545    0.4732   -6.0506 N.am      6 UNK        -0.4434 
     40 CA         29.6733    1.7865   -5.8689 C.3       6 UNK         0.0363 
     41 CB         29.7806    2.0971   -4.3680 C.3       6 UNK        -0.1936 
     42 C          28.9223    2.9066   -6.6076 C.2       6 UNK         0.5081 
     43 O          29.5656    3.8173   -7.1271 O.2       6 UNK        -0.5248 
     44 N          27.5866    2.8050   -6.6807 N.am      7 UNK        -0.4718 
     45 CA         26.7288    3.7182   -7.4441 C.3       7 UNK         0.0273 
     46 CB         25.2654    3.5516   -7.0037 C.3       7 UNK        -0.1935 
     47 C          26.8761    3.5105   -8.9608 C.2       7 UNK         0.5018 
     48 O          26.8664    4.4863   -9.7113 O.2       7 UNK        -0.5186 
     49 N          27.0614    2.2491   -9.3753 N.am      8 UNK        -0.4240 
     50 CA         27.4077    1.8530  -10.7436 C.3       8 UNK         0.0235 
     51 CB         27.1270    0.3494  -10.9070 C.3       8 UNK        -0.2000 
     52 C          28.8670    2.1737  -11.1319 C.2       8 UNK         0.4941 
     53 O          29.2025    2.0675  -12.3121 O.2       8 UNK        -0.5273 
     54 N          29.7025    2.5366  -10.1452 N.am      9 UNK        -0.4262 
     55 CA         31.1423    2.8114  -10.2279 C.3       9 UNK         0.0264 
     56 CB         31.4245    4.0461  -11.1099 C.3       9 UNK        -0.1955 
     57 C          31.9749    1.5776  -10.6316 C.2       9 UNK         0.5031 
     58 O          33.0260    1.7222  -11.2593 O.2       9 UNK        -0.5390 
     59 N          31.5087    0.3825  -10.2446 N.am      10 UNK        -0.4204 
     60 CA         32.1521   -0.9012  -10.5337 C.3       10 UNK         0.0237 
     61 CB         31.1035   -2.0207  -10.4345 C.3       10 UNK        -0.1985 
     62 C          33.3605   -1.1964   -9.6265 C.2       10 UNK         0.4970 
     63 O          34.1577   -2.0718   -9.9653 O.2       10 UNK        -0.4914 
     64 N          33.4839   -0.4731   -8.5048 N.am      11 UNK        -0.4285 
     65 CA         34.6059   -0.5728   -7.5554 C.3       11 UNK         0.1007 
     66 C          35.9594   -0.0168   -8.0898 C.2       11 UNK         0.5703 
     67 N          35.9914    0.7181   -9.1962 N.am      11 UNK        -0.7361 
     68 O          37.0024   -0.2633   -7.4888 O.2       11 UNK        -0.4986 
     69 C69        34.2645    0.0565   -6.1769 C.3       12 UNK        -0.0947 
     70 S70        32.7223   -0.5918   -5.4573 S.3       12 UNK        -0.2240 
     71 C71        33.3426   -1.9577   -4.4263 C.3       12 UNK         0.0194 
     72 H72        25.1276   -0.3310    3.8145 H         1 UNK         0.0906 
     73 H73        25.1247    1.4304    3.7109 H         1 UNK         0.0906 
     74 H74        23.6438    0.5243    3.3895 H         1 UNK         0.0906 
     75 H75        26.0987   -1.2791    2.0397 H         1 UNK         0.3140 
     76 H76        26.6502    0.1146   -0.3928 H         1 UNK         0.1085 
     77 H77        28.0542   -1.7408    0.6895 H         1 UNK         0.0836 
     78 H78        26.8958   -2.9058    0.1043 H         1 UNK         0.0836 
     79 H79        29.1127   -4.0448   -0.9066 H         1 UNK         0.0731 
     80 H80        30.1757   -2.7101   -0.5105 H         1 UNK         0.0731 
     81 H81        31.8416   -1.9093   -2.1368 H         1 UNK         0.1312 
     82 H82        32.2090   -3.9082   -5.9088 H         1 UNK         0.1406 
     83 H83        28.9567   -4.8677   -3.2868 H         1 UNK         0.1631 
     84 H84        29.4741   -6.2365   -5.4268 H         1 UNK         0.0717 
     85 H85        30.6042   -5.5656   -6.5802 H         1 UNK         0.0717 
     86 H86        29.5671   -2.3595   -5.6798 H         1 UNK         0.0934 
     87 H87        30.1486   -2.7065   -7.2880 H         1 UNK         0.0934 
     88 H88        28.0203   -1.7916   -8.2327 H         1 UNK         0.0739 
     89 H89        26.9528   -2.1786   -5.6843 H         1 UNK         0.3093 
     90 H90        24.9418    0.1466   -5.0266 H         1 UNK         0.0818 
     91 H91        23.3111   -1.3436   -7.1452 H         1 UNK         0.0819 
     92 H92        22.6397   -0.5595   -5.7154 H         1 UNK         0.0819 
     93 H93        23.4363    0.3964   -6.9532 H         1 UNK         0.0819 
     94 H94        24.8751   -1.6502   -3.7945 H         1 UNK         0.3041 
     95 H95        23.8426   -4.9624   -4.2357 H         1 UNK         0.0784 
     96 H96        26.2571   -5.3648   -4.7273 H         1 UNK         0.0793 
     97 H97        26.7197   -4.1610   -3.5313 H         1 UNK         0.0793 
     98 H98        25.9204   -5.6524   -3.0290 H         1 UNK         0.0793 
     99 H99        24.9026   -3.5365   -1.9791 H         1 UNK         0.3024 
    100 H100       22.2607   -1.4482   -1.2750 H         1 UNK         0.1171 
    101 H101       21.0427   -3.4989   -0.5031 H         1 UNK         0.0786 
    102 H102       22.5241   -4.1210    0.2103 H         1 UNK         0.0786 
    103 H103       21.7812   -2.6504    0.8428 H         1 UNK         0.0786 
    104 H104       24.2119   -2.2757    0.5380 H         1 UNK         0.2977 
    105 H105       28.6099    0.0638   -5.2421 H         1 UNK         0.3127 
    106 H106       30.6845    1.7414   -6.2796 H         1 UNK         0.0770 
    107 H107       28.8014    2.1347   -3.8892 H         1 UNK         0.0814 
    108 H108       30.2617    3.0624   -4.2042 H         1 UNK         0.0814 
    109 H109       30.3800    1.3468   -3.8514 H         1 UNK         0.0814 
    110 H110       27.1389    1.9992   -6.2692 H         1 UNK         0.2983 
    111 H111       27.0361    4.7423   -7.2198 H         1 UNK         0.0947 
    112 H112       24.6206    4.2582   -7.5280 H         1 UNK         0.0806 
    113 H113       25.1479    3.7381   -5.9362 H         1 UNK         0.0806 
    114 H114       24.8866    2.5514   -7.2141 H         1 UNK         0.0806 
    115 H115       26.9654    1.5011   -8.6935 H         1 UNK         0.3000 
    116 H116       26.7603    2.4003  -11.4320 H         1 UNK         0.0850 
    117 H117       27.3090    0.0260  -11.9328 H         1 UNK         0.0810 
    118 H118       26.0899    0.1106  -10.6704 H         1 UNK         0.0810 
    119 H119       27.7643   -0.2521  -10.2585 H         1 UNK         0.0810 
    120 H120       29.3177    2.5633   -9.2103 H         1 UNK         0.3040 
    121 H121       31.4542    3.0593   -9.2123 H         1 UNK         0.0766 
    122 H122       30.8290    4.9027  -10.7940 H         1 UNK         0.0812 
    123 H123       31.2056    3.8529  -12.1604 H         1 UNK         0.0812 
    124 H124       32.4727    4.3405  -11.0466 H         1 UNK         0.0812 
    125 H125       30.6731    0.3527   -9.6593 H         1 UNK         0.3205 
    126 H126       32.5205   -0.8766  -11.5616 H         1 UNK         0.0754 
    127 H127       31.5404   -2.9912  -10.6740 H         1 UNK         0.0769 
    128 H128       30.2808   -1.8548  -11.1305 H         1 UNK         0.0769 
    129 H129       30.6832   -2.0896   -9.4327 H         1 UNK         0.0769 
    130 H130       32.7751    0.2101   -8.2871 H         1 UNK         0.2981 
    131 H131       34.7762   -1.6376   -7.3853 H         1 UNK         0.0541 
    132 H132       36.8760    1.0669   -9.5300 H         1 UNK         0.3459 
    133 H133       35.1444    0.9225   -9.7041 H         1 UNK         0.3459 
    134 H134       34.1545    1.1380   -6.2738 H         1 UNK         0.0612 
    135 H135       35.0762   -0.1034   -5.4645 H         1 UNK         0.0612 
    136 H136       34.0893   -2.5302   -4.9789 H         1 UNK         0.0624 
    137 H137       33.8397   -1.5555   -3.5423 H         1 UNK         0.0624 
@<TRIPOS>BOND
     1    1    2 1    
     2    1   72 1    
     3    1   73 1    
     4    1   74 1    
     5    2    3 2    
     6    2    4 am   BACKBONE|DICT|INTERRES
     7    4    5 1    
     8    4   75 1    
     9    5    6 1    
    10    5   35 1    
    11    5   76 1    
    12    6    7 1    
    13    6   77 1    
    14    6   78 1    
    15    7    8 1    
    16    8    9 1    
    17    8   79 1    
    18    8   80 1    
    19    9   10 ar   
    20    9   14 ar   
    21   10   11 ar   
    22   10   81 1    
    23   11   12 ar   
    24   11   71 1    
    25   12   13 ar   
    26   12   82 1    
    27   13   14 ar   
    28   13   15 1    
    29   14   83 1    
    30   15   16 1    
    31   15   84 1    
    32   15   85 1    
    33   16   17 1    
    34   17   18 1    
    35   17   86 1    
    36   17   87 1    
    37   18   19 1    
    38   18   37 1    
    39   18   88 1    
    40   19   20 am   BACKBONE|DICT|INTERRES
    41   19   89 1    
    42   20   21 2    
    43   20   22 1    
    44   22   23 1    
    45   22   24 1    
    46   22   90 1    
    47   23   91 1    
    48   23   92 1    
    49   23   93 1    
    50   24   25 am   BACKBONE|DICT|INTERRES
    51   24   94 1    
    52   25   26 2    
    53   25   27 1    
    54   27   28 1    
    55   27   29 1    
    56   27   95 1    
    57   28   96 1    
    58   28   97 1    
    59   28   98 1    
    60   29   30 am   BACKBONE|DICT|INTERRES
    61   29   99 1    
    62   30   31 2    
    63   30   32 1    
    64   32   33 1    
    65   32   34 1    
    66   32  100 1    
    67   33  101 1    
    68   33  102 1    
    69   33  103 1    
    70   34   35 am   BACKBONE|DICT|INTERRES
    71   34  104 1    
    72   35   36 2    
    73   37   38 2    
    74   37   39 am   BACKBONE|DICT|INTERRES
    75   39   40 1    
    76   39  105 1    
    77   40   41 1    
    78   40   42 1    
    79   40  106 1    
    80   41  107 1    
    81   41  108 1    
    82   41  109 1    
    83   42   43 2    
    84   42   44 am   BACKBONE|DICT|INTERRES
    85   44   45 1    
    86   44  110 1    
    87   45   46 1    
    88   45   47 1    
    89   45  111 1    
    90   46  112 1    
    91   46  113 1    
    92   46  114 1    
    93   47   48 2    
    94   47   49 am   BACKBONE|DICT|INTERRES
    95   49   50 1    
    96   49  115 1    
    97   50   51 1    
    98   50   52 1    
    99   50  116 1    
   100   51  117 1    
   101   51  118 1    
   102   51  119 1    
   103   52   53 2    
   104   52   54 am   BACKBONE|DICT|INTERRES
   105   54   55 1    
   106   54  120 1    
   107   55   56 1    
   108   55   57 1    
   109   55  121 1    
   110   56  122 1    
   111   56  123 1    
   112   56  124 1    
   113   57   58 2    
   114   57   59 am   BACKBONE|DICT|INTERRES
   115   59   60 1    
   116   59  125 1    
   117   60   61 1    
   118   60   62 1    
   119   60  126 1    
   120   61  127 1    
   121   61  128 1    
   122   61  129 1    
   123   62   63 2    
   124   62   64 am   BACKBONE|DICT|INTERRES
   125   64   65 1    
   126   64  130 1    
   127   65   66 1    
   128   65   69 1    
   129   65  131 1    
   130   66   67 am   BACKBONE|DICT|INTERRES
   131   66   68 2    
   132   67  132 1    
   133   67  133 1    
   134   69   70 1    
   135   69  134 1    
   136   69  135 1    
   137   70   71 1    
   138   71  136 1    
   139   71  137 1    
@<TRIPOS>SUBSTRUCTURE
     1 UNK         1 GROUP             0       ****    0 ROOT    
