@<TRIPOS>MOLECULE
3R137
137   139    1
SMALL
USER_CHARGES


@<TRIPOS>ATOM
      1 CA         30.2426    0.7485   -2.5402 C.3       0 UNK        -0.2020 
      2 C          29.3388    0.1084   -1.4976 C.2       0 UNK         0.4855 
      3 O          28.8007    0.8158   -0.6461 O.2       0 UNK        -0.5197 
      4 N          29.1791   -1.2210   -1.5638 N.am      1 UNK        -0.4892 
      5 CA         28.4013   -2.0634   -0.6404 C.3       1 UNK         0.0835 
      6 C6         29.0239   -2.1795    0.7785 C.3       12 UNK        -0.0855 
      7 S7         30.8205   -2.5470    0.8143 S.3       12 UNK        -0.2931 
      8 C8         30.9838   -4.1462   -0.0576 C.3       12 UNK         0.0378 
      9 C9         30.9385   -3.9988   -1.5759 C.ar      12 UNK        -0.0802 
     10 C10        31.8584   -3.1787   -2.2387 C.ar      12 UNK        -0.0944 
     11 C11        31.7909   -2.9953   -3.6245 C.ar      12 UNK        -0.0787 
     12 C12        30.7867   -3.6509   -4.3482 C.ar      12 UNK        -0.0862 
     13 C13        29.8660   -4.4809   -3.6989 C.ar      12 UNK        -0.0733 
     14 C14        29.9650   -4.6725   -2.3192 C.ar      12 UNK        -0.0832 
     15 C15        28.7609   -5.1724   -4.4821 C.3       12 UNK         0.0240 
     16 S16        27.1325   -4.4156   -4.1560 S.3       12 UNK        -0.2522 
     17 C17        26.1787   -5.0634   -5.5802 C.3       12 UNK        -0.0967 
     18 CA         25.9765   -4.1012   -6.7889 C.3       5 UNK         0.0660 
     19 N          24.8435   -3.1827   -6.6132 N.am      5 UNK        -0.4015 
     20 C          24.1133   -2.7059   -7.6349 C.2       4 UNK         0.4946 
     21 O          24.3019   -3.0162   -8.8118 O.2       4 UNK        -0.5353 
     22 CA         22.9808   -1.7175   -7.3070 C.3       4 UNK         0.0277 
     23 CB         21.7220   -2.4712   -6.8475 C.3       4 UNK        -0.1981 
     24 N          23.3507   -0.7242   -6.3001 N.am      4 UNK        -0.4209 
     25 C          24.2349    0.2658   -6.4864 C.2       3 UNK         0.4942 
     26 O          24.8161    0.4866   -7.5494 O.2       3 UNK        -0.5208 
     27 CA         24.5531    1.1500   -5.2674 C.3       3 UNK         0.0250 
     28 CB         23.6581    2.3992   -5.2648 C.3       3 UNK        -0.1990 
     29 N          24.4576    0.4705   -3.9668 N.am      3 UNK        -0.4232 
     30 C          25.1390   -0.6342   -3.6353 C.2       2 UNK         0.4993 
     31 O          25.8326   -1.2740   -4.4306 O.2       2 UNK        -0.5286 
     32 CA         25.0270   -1.1327   -2.1945 C.3       2 UNK         0.0209 
     33 CB         23.9792   -2.2523   -2.0755 C.3       2 UNK        -0.1931 
     34 N          26.3462   -1.6428   -1.8549 N.am      2 UNK        -0.4546 
     35 C          26.9084   -1.6769   -0.6444 C.2       1 UNK         0.5154 
     36 O          26.3171   -1.3960    0.4003 O.2       1 UNK        -0.5181 
     37 C          27.2492   -3.3267   -7.1837 C.2       5 UNK         0.5014 
     38 O          28.0299   -3.8071   -8.0063 O.2       5 UNK        -0.5248 
     39 N          27.4259   -2.1421   -6.5835 N.am      6 UNK        -0.4434 
     40 CA         28.5767   -1.2637   -6.7600 C.3       6 UNK         0.0363 
     41 CB         28.6314   -0.3038   -5.5627 C.3       6 UNK        -0.1936 
     42 C          28.5635   -0.4798   -8.0810 C.2       6 UNK         0.5081 
     43 O          29.5621    0.1724   -8.3875 O.2       6 UNK        -0.5248 
     44 N          27.4344   -0.5146   -8.8059 N.am      7 UNK        -0.4718 
     45 CA         27.1485    0.1973  -10.0567 C.3       7 UNK         0.0273 
     46 CB         27.9657   -0.4031  -11.2190 C.3       7 UNK        -0.1935 
     47 C          27.3238    1.7190   -9.9004 C.2       7 UNK         0.5018 
     48 O          28.0497    2.3442  -10.6741 O.2       7 UNK        -0.5186 
     49 N          26.6789    2.2634   -8.8571 N.am      8 UNK        -0.4240 
     50 CA         26.7727    3.6497   -8.3814 C.3       8 UNK         0.0235 
     51 CB         26.1521    4.6268   -9.4029 C.3       8 UNK        -0.2000 
     52 C          28.2067    4.0385   -7.9602 C.2       8 UNK         0.4941 
     53 O          28.6837    5.1183   -8.3137 O.2       8 UNK        -0.5273 
     54 N          28.8540    3.1411   -7.1997 N.am      9 UNK        -0.4262 
     55 CA         30.2120    3.2501   -6.6472 C.3       9 UNK         0.0264 
     56 CB         30.3137    4.4165   -5.6405 C.3       9 UNK        -0.1955 
     57 C          31.3178    3.2744   -7.7217 C.2       9 UNK         0.5031 
     58 O          32.3191    3.9746   -7.5585 O.2       9 UNK        -0.5390 
     59 N          31.1372    2.4803   -8.7844 N.am      10 UNK        -0.4204 
     60 CA         32.1320    2.2531   -9.8355 C.3       10 UNK         0.0237 
     61 CB         31.4079    2.0465  -11.1747 C.3       10 UNK        -0.1985 
     62 C          33.0473    1.0534   -9.5263 C.2       10 UNK         0.4970 
     63 O          34.0701    0.9011  -10.1951 O.2       10 UNK        -0.4914 
     64 N          32.6752    0.2253   -8.5393 N.am      11 UNK        -0.4285 
     65 CA         33.4154   -0.9640   -8.0844 C.3       11 UNK         0.1007 
     66 C          34.8360   -0.7086   -7.4942 C.2       11 UNK         0.5703 
     67 N          35.2024    0.5184   -7.1424 N.am      11 UNK        -0.7361 
     68 O          35.6206   -1.6449   -7.3615 O.2       11 UNK        -0.4986 
     69 C69        32.5434   -1.8335   -7.1388 C.3       12 UNK        -0.0947 
     70 S70        32.1185   -0.9881   -5.5721 S.3       12 UNK        -0.2240 
     71 C71        32.8255   -2.1041   -4.3124 C.3       12 UNK         0.0194 
     72 H72        29.6680    1.4214   -3.1760 H         1 UNK         0.0906 
     73 H73        30.7204    0.0025   -3.1731 H         1 UNK         0.0906 
     74 H74        31.0273    1.3264   -2.0529 H         1 UNK         0.0906 
     75 H75        29.6813   -1.7376   -2.2738 H         1 UNK         0.3140 
     76 H76        28.3962   -3.0647   -1.0613 H         1 UNK         0.1085 
     77 H77        28.8771   -1.2459    1.3247 H         1 UNK         0.0836 
     78 H78        28.5055   -2.9478    1.3549 H         1 UNK         0.0836 
     79 H79        30.2114   -4.8296    0.2989 H         1 UNK         0.0731 
     80 H80        31.9393   -4.5952    0.2165 H         1 UNK         0.0731 
     81 H81        32.6216   -2.6703   -1.6648 H         1 UNK         0.1312 
     82 H82        30.7215   -3.5161   -5.4187 H         1 UNK         0.1406 
     83 H83        29.2531   -5.3176   -1.8215 H         1 UNK         0.1631 
     84 H84        28.7264   -6.2301   -4.2168 H         1 UNK         0.0717 
     85 H85        28.9795   -5.1305   -5.5500 H         1 UNK         0.0717 
     86 H86        26.6690   -5.9733   -5.9310 H         1 UNK         0.0934 
     87 H87        25.2085   -5.3990   -5.2106 H         1 UNK         0.0934 
     88 H88        25.7397   -4.7444   -7.6399 H         1 UNK         0.0739 
     89 H89        24.6877   -2.8286   -5.6788 H         1 UNK         0.3093 
     90 H90        22.7367   -1.1819   -8.2273 H         1 UNK         0.0818 
     91 H91        21.4139   -3.2057   -7.5931 H         1 UNK         0.0819 
     92 H92        21.8867   -3.0068   -5.9117 H         1 UNK         0.0819 
     93 H93        20.8831   -1.7903   -6.7018 H         1 UNK         0.0819 
     94 H94        22.9258   -0.8142   -5.3891 H         1 UNK         0.3041 
     95 H95        25.5876    1.4800   -5.3790 H         1 UNK         0.0784 
     96 H96        23.7273    2.9324   -6.2143 H         1 UNK         0.0793 
     97 H97        22.6089    2.1441   -5.1102 H         1 UNK         0.0793 
     98 H98        23.9535    3.0985   -4.4823 H         1 UNK         0.0793 
     99 H99        23.8923    0.9248   -3.2633 H         1 UNK         0.3024 
    100 H100       24.7715   -0.3004   -1.5346 H         1 UNK         0.1171 
    101 H101       22.9865   -1.8913   -2.3470 H         1 UNK         0.0786 
    102 H102       24.2142   -3.0942   -2.7288 H         1 UNK         0.0786 
    103 H103       23.9191   -2.6301   -1.0548 H         1 UNK         0.0786 
    104 H104       26.9061   -1.8693   -2.6692 H         1 UNK         0.2977 
    105 H105       26.7574   -1.8568   -5.8681 H         1 UNK         0.3127 
    106 H106       29.4754   -1.8798   -6.7528 H         1 UNK         0.0770 
    107 H107       27.7650    0.3564   -5.5309 H         1 UNK         0.0814 
    108 H108       29.5206    0.3208   -5.6020 H         1 UNK         0.0814 
    109 H109       28.6679   -0.8545   -4.6229 H         1 UNK         0.0814 
    110 H110       26.6587   -1.0343   -8.4183 H         1 UNK         0.2983 
    111 H111       26.0919    0.0342  -10.2763 H         1 UNK         0.0947 
    112 H112       29.0377   -0.3260  -11.0437 H         1 UNK         0.0806 
    113 H113       27.7485    0.1069  -12.1583 H         1 UNK         0.0806 
    114 H114       27.7291   -1.4575  -11.3607 H         1 UNK         0.0806 
    115 H115       26.0765    1.6445   -8.3160 H         1 UNK         0.3000 
    116 H116       26.1680    3.7010   -7.4745 H         1 UNK         0.0850 
    117 H117       26.1095    5.6389   -8.9985 H         1 UNK         0.0810 
    118 H118       25.1329    4.3380   -9.6593 H         1 UNK         0.0810 
    119 H119       26.7311    4.6713  -10.3259 H         1 UNK         0.0810 
    120 H120       28.3785    2.2712   -7.0113 H         1 UNK         0.3040 
    121 H121       30.3860    2.3349   -6.0828 H         1 UNK         0.0766 
    122 H122       30.2241    5.3858   -6.1315 H         1 UNK         0.0812 
    123 H123       31.2741    4.4037   -5.1237 H         1 UNK         0.0812 
    124 H124       29.5374    4.3522   -4.8781 H         1 UNK         0.0812 
    125 H125       30.3168    1.8779   -8.8074 H         1 UNK         0.3205 
    126 H126       32.7697    3.1344   -9.9317 H         1 UNK         0.0754 
    127 H127       32.1195    1.9219  -11.9919 H         1 UNK         0.0769 
    128 H128       30.7773    2.9015  -11.4198 H         1 UNK         0.0769 
    129 H129       30.7743    1.1608  -11.1540 H         1 UNK         0.0769 
    130 H130       31.7910    0.3920   -8.0782 H         1 UNK         0.2981 
    131 H131       33.5880   -1.5603   -8.9821 H         1 UNK         0.0541 
    132 H132       36.1245    0.6701   -6.7661 H         1 UNK         0.3459 
    133 H133       34.5634    1.2899   -7.2452 H         1 UNK         0.3459 
    134 H134       33.0374   -2.7844   -6.9343 H         1 UNK         0.0612 
    135 H135       31.6145   -2.0977   -7.6449 H         1 UNK         0.0612 
    136 H136       33.3202   -1.4743   -3.5715 H         1 UNK         0.0624 
    137 H137       33.6090   -2.7268   -4.7447 H         1 UNK         0.0624 
@<TRIPOS>BOND
     1    1    2 1    
     2    1   72 1    
     3    1   73 1    
     4    1   74 1    
     5    2    3 2    
     6    2    4 am   BACKBONE|DICT|INTERRES
     7    4    5 1    
     8    4   75 1    
     9    5    6 1    
    10    5   35 1    
    11    5   76 1    
    12    6    7 1    
    13    6   77 1    
    14    6   78 1    
    15    7    8 1    
    16    8    9 1    
    17    8   79 1    
    18    8   80 1    
    19    9   10 ar   
    20    9   14 ar   
    21   10   11 ar   
    22   10   81 1    
    23   11   12 ar   
    24   11   71 1    
    25   12   13 ar   
    26   12   82 1    
    27   13   14 ar   
    28   13   15 1    
    29   14   83 1    
    30   15   16 1    
    31   15   84 1    
    32   15   85 1    
    33   16   17 1    
    34   17   18 1    
    35   17   86 1    
    36   17   87 1    
    37   18   19 1    
    38   18   37 1    
    39   18   88 1    
    40   19   20 am   BACKBONE|DICT|INTERRES
    41   19   89 1    
    42   20   21 2    
    43   20   22 1    
    44   22   23 1    
    45   22   24 1    
    46   22   90 1    
    47   23   91 1    
    48   23   92 1    
    49   23   93 1    
    50   24   25 am   BACKBONE|DICT|INTERRES
    51   24   94 1    
    52   25   26 2    
    53   25   27 1    
    54   27   28 1    
    55   27   29 1    
    56   27   95 1    
    57   28   96 1    
    58   28   97 1    
    59   28   98 1    
    60   29   30 am   BACKBONE|DICT|INTERRES
    61   29   99 1    
    62   30   31 2    
    63   30   32 1    
    64   32   33 1    
    65   32   34 1    
    66   32  100 1    
    67   33  101 1    
    68   33  102 1    
    69   33  103 1    
    70   34   35 am   BACKBONE|DICT|INTERRES
    71   34  104 1    
    72   35   36 2    
    73   37   38 2    
    74   37   39 am   BACKBONE|DICT|INTERRES
    75   39   40 1    
    76   39  105 1    
    77   40   41 1    
    78   40   42 1    
    79   40  106 1    
    80   41  107 1    
    81   41  108 1    
    82   41  109 1    
    83   42   43 2    
    84   42   44 am   BACKBONE|DICT|INTERRES
    85   44   45 1    
    86   44  110 1    
    87   45   46 1    
    88   45   47 1    
    89   45  111 1    
    90   46  112 1    
    91   46  113 1    
    92   46  114 1    
    93   47   48 2    
    94   47   49 am   BACKBONE|DICT|INTERRES
    95   49   50 1    
    96   49  115 1    
    97   50   51 1    
    98   50   52 1    
    99   50  116 1    
   100   51  117 1    
   101   51  118 1    
   102   51  119 1    
   103   52   53 2    
   104   52   54 am   BACKBONE|DICT|INTERRES
   105   54   55 1    
   106   54  120 1    
   107   55   56 1    
   108   55   57 1    
   109   55  121 1    
   110   56  122 1    
   111   56  123 1    
   112   56  124 1    
   113   57   58 2    
   114   57   59 am   BACKBONE|DICT|INTERRES
   115   59   60 1    
   116   59  125 1    
   117   60   61 1    
   118   60   62 1    
   119   60  126 1    
   120   61  127 1    
   121   61  128 1    
   122   61  129 1    
   123   62   63 2    
   124   62   64 am   BACKBONE|DICT|INTERRES
   125   64   65 1    
   126   64  130 1    
   127   65   66 1    
   128   65   69 1    
   129   65  131 1    
   130   66   67 am   BACKBONE|DICT|INTERRES
   131   66   68 2    
   132   67  132 1    
   133   67  133 1    
   134   69   70 1    
   135   69  134 1    
   136   69  135 1    
   137   70   71 1    
   138   71  136 1    
   139   71  137 1    
@<TRIPOS>SUBSTRUCTURE
     1 UNK         1 GROUP             0       ****    0 ROOT    
