@<TRIPOS>MOLECULE
3R137
137   139    1
SMALL
USER_CHARGES


@<TRIPOS>ATOM
      1 CA         30.7268   -3.7438   -5.1198 C.3       0 UNK        -0.2020 
      2 C          29.7715   -4.8049   -4.6025 C.2       0 UNK         0.4855 
      3 O          29.6739   -5.8885   -5.1795 O.2       0 UNK        -0.5197 
      4 N          29.0740   -4.4954   -3.5056 N.am      1 UNK        -0.4892 
      5 CA         28.0543   -5.3475   -2.8917 C.3       1 UNK         0.0835 
      6 C6         27.9939   -5.1217   -1.3572 C.3       12 UNK        -0.0855 
      7 S7         27.5594   -3.4123   -0.8699 S.3       12 UNK        -0.2931 
      8 C8         29.1643   -2.7361   -0.3254 C.3       12 UNK         0.0378 
      9 C9         29.4907   -1.4283   -1.0327 C.ar      12 UNK        -0.0802 
     10 C10        30.6284   -1.3161   -1.8383 C.ar      12 UNK        -0.0944 
     11 C11        30.9427   -0.1024   -2.4598 C.ar      12 UNK        -0.0787 
     12 C12        30.1078    1.0047   -2.2731 C.ar      12 UNK        -0.0862 
     13 C13        28.9465    0.8919   -1.4998 C.ar      12 UNK        -0.0733 
     14 C14        28.6570   -0.3195   -0.8672 C.ar      12 UNK        -0.0832 
     15 C15        27.9790    2.0580   -1.3596 C.3       12 UNK         0.0240 
     16 S16        26.4769    1.7956   -2.3640 S.3       12 UNK        -0.2522 
     17 C17        27.0697    2.2127   -4.0378 C.3       12 UNK        -0.0967 
     18 CA         27.6213    0.9781   -4.8085 C.3       5 UNK         0.0660 
     19 N          26.6192   -0.0648   -5.0485 N.am      5 UNK        -0.4015 
     20 C          25.5038    0.0185   -5.7866 C.2       4 UNK         0.4946 
     21 O          25.1241    1.0301   -6.3785 O.2       4 UNK        -0.5353 
     22 CA         24.6569   -1.2614   -5.8563 C.3       4 UNK         0.0277 
     23 CB         25.2353   -2.2492   -6.8842 C.3       4 UNK        -0.1981 
     24 N          24.5550   -1.9269   -4.5556 N.am      4 UNK        -0.4209 
     25 C          23.7719   -1.5095   -3.5473 C.2       3 UNK         0.4942 
     26 O          23.0694   -0.4989   -3.6103 O.2       3 UNK        -0.5208 
     27 CA         23.7587   -2.3635   -2.2581 C.3       3 UNK         0.0250 
     28 CB         22.4252   -2.2638   -1.4871 C.3       3 UNK        -0.1990 
     29 N          24.1303   -3.7663   -2.4841 N.am      3 UNK        -0.4232 
     30 C          23.5314   -4.6541   -3.2957 C.2       2 UNK         0.4993 
     31 O          22.4442   -4.4565   -3.8401 O.2       2 UNK        -0.5286 
     32 CA         24.2891   -5.9710   -3.5841 C.3       2 UNK         0.0209 
     33 CB         24.1701   -6.3799   -5.0683 C.3       2 UNK        -0.1931 
     34 N          25.7049   -5.9785   -3.1724 N.am      2 UNK        -0.4546 
     35 C          26.6796   -5.1411   -3.5652 C.2       1 UNK         0.5154 
     36 O          26.4995   -4.2035   -4.3503 O.2       1 UNK        -0.5181 
     37 C          28.4030    1.3823   -6.0775 C.2       5 UNK         0.5014 
     38 O          28.1219    0.9098   -7.1823 O.2       5 UNK        -0.5248 
     39 N          29.4119    2.2451   -5.8849 N.am      6 UNK        -0.4434 
     40 CA         30.3881    2.6775   -6.8896 C.3       6 UNK         0.0363 
     41 CB         31.3960    3.6319   -6.2325 C.3       6 UNK        -0.1936 
     42 C          29.7890    3.3161   -8.1520 C.2       6 UNK         0.5081 
     43 O          30.3920    3.2036   -9.2176 O.2       6 UNK        -0.5248 
     44 N          28.6034    3.9266   -8.0269 N.am      7 UNK        -0.4718 
     45 CA         27.8322    4.4942   -9.1361 C.3       7 UNK         0.0273 
     46 CB         26.6172    5.2452   -8.5677 C.3       7 UNK        -0.1935 
     47 C          27.3797    3.4571  -10.1831 C.2       7 UNK         0.5018 
     48 O          27.1575    3.8374  -11.3336 O.2       7 UNK        -0.5186 
     49 N          27.2519    2.1861   -9.7765 N.am      8 UNK        -0.4240 
     50 CA         26.8672    1.0701  -10.6404 C.3       8 UNK         0.0235 
     51 CB         25.5701    0.4440  -10.1039 C.3       8 UNK        -0.2000 
     52 C          27.9778    0.0144  -10.7371 C.2       8 UNK         0.4941 
     53 O          28.2390   -0.4804  -11.8340 O.2       8 UNK        -0.5273 
     54 N          28.6026   -0.3282   -9.6022 N.am      9 UNK        -0.4262 
     55 CA         29.5800   -1.4140   -9.4931 C.3       9 UNK         0.0264 
     56 CB         29.5348   -1.9760   -8.0628 C.3       9 UNK        -0.1955 
     57 C          31.0187   -1.0096   -9.8574 C.2       9 UNK         0.5031 
     58 O          31.8480   -1.9018  -10.0382 O.2       9 UNK        -0.5390 
     59 N          31.3071    0.3008   -9.9257 N.am      10 UNK        -0.4204 
     60 CA         32.6261    0.9025  -10.1857 C.3       10 UNK         0.0237 
     61 CB         33.1142    0.5706  -11.6127 C.3       10 UNK        -0.1985 
     62 C          33.6886    0.5937   -9.1065 C.2       10 UNK         0.4970 
     63 O          34.8846    0.6794   -9.3889 O.2       10 UNK        -0.4914 
     64 N          33.2420    0.2601   -7.8884 N.am      11 UNK        -0.4285 
     65 CA         34.0793   -0.0698   -6.7240 C.3       11 UNK         0.1007 
     66 C          34.7620    1.1389   -6.0158 C.2       11 UNK         0.5703 
     67 N          34.5872    2.3710   -6.4772 N.am      11 UNK        -0.7361 
     68 O          35.4798    0.9526   -5.0362 O.2       11 UNK        -0.4986 
     69 C69        33.3242   -0.9994   -5.7366 C.3       12 UNK        -0.0947 
     70 S70        31.7643   -0.3062   -5.0830 S.3       12 UNK        -0.2240 
     71 C71        32.1809    0.0018   -3.3383 C.3       12 UNK         0.0194 
     72 H72        31.2039   -4.0657   -6.0449 H         1 UNK         0.0906 
     73 H73        30.1878   -2.8182   -5.3171 H         1 UNK         0.0906 
     74 H74        31.5084   -3.5397   -4.3884 H         1 UNK         0.0906 
     75 H75        29.1501   -3.5710   -3.1052 H         1 UNK         0.3140 
     76 H76        28.3293   -6.3916   -3.0598 H         1 UNK         0.1085 
     77 H77        28.9481   -5.4049   -0.9111 H         1 UNK         0.0836 
     78 H78        27.2685   -5.7947   -0.8970 H         1 UNK         0.0836 
     79 H79        29.1249   -2.5600    0.7504 H         1 UNK         0.0731 
     80 H80        29.9645   -3.4598   -0.4838 H         1 UNK         0.0731 
     81 H81        31.2767   -2.1705   -1.9779 H         1 UNK         0.1312 
     82 H82        30.3472    1.9419   -2.7553 H         1 UNK         0.1406 
     83 H83        27.7648   -0.4074   -0.2615 H         1 UNK         0.1631 
     84 H84        28.4548    3.0014   -1.6313 H         1 UNK         0.0717 
     85 H85        27.6869    2.1571   -0.3131 H         1 UNK         0.0717 
     86 H86        26.2442    2.6672   -4.5881 H         1 UNK         0.0934 
     87 H87        27.8155    3.0014   -3.9347 H         1 UNK         0.0934 
     88 H88        28.3613    0.4839   -4.1834 H         1 UNK         0.0739 
     89 H89        26.8207   -0.9559   -4.6205 H         1 UNK         0.3093 
     90 H90        23.6521   -0.9823   -6.1813 H         1 UNK         0.0818 
     91 H91        24.6189   -3.1452   -6.9603 H         1 UNK         0.0819 
     92 H92        25.2792   -1.8040   -7.8775 H         1 UNK         0.0819 
     93 H93        26.2463   -2.5636   -6.6222 H         1 UNK         0.0819 
     94 H94        25.1144   -2.7662   -4.4285 H         1 UNK         0.3041 
     95 H95        24.5394   -1.9460   -1.6201 H         1 UNK         0.0784 
     96 H96        22.2228   -1.2353   -1.1859 H         1 UNK         0.0793 
     97 H97        21.5815   -2.5962   -2.0926 H         1 UNK         0.0793 
     98 H98        22.4457   -2.8668   -0.5794 H         1 UNK         0.0793 
     99 H99        25.0205   -4.0384   -2.0902 H         1 UNK         0.3024 
    100 H100       23.7889   -6.7357   -2.9873 H         1 UNK         0.1171 
    101 H101       24.6834   -7.3216   -5.2630 H         1 UNK         0.0786 
    102 H102       24.5935   -5.6241   -5.7309 H         1 UNK         0.0786 
    103 H103       23.1276   -6.5178   -5.3579 H         1 UNK         0.0786 
    104 H104       25.9448   -6.6977   -2.5031 H         1 UNK         0.2977 
    105 H105       29.5793    2.5813   -4.9491 H         1 UNK         0.3127 
    106 H106       30.9251    1.7860   -7.2137 H         1 UNK         0.0770 
    107 H107       30.9069    4.5172   -5.8244 H         1 UNK         0.0814 
    108 H108       32.1377    3.9769   -6.9541 H         1 UNK         0.0814 
    109 H109       31.9373    3.1418   -5.4227 H         1 UNK         0.0814 
    110 H110       28.1802    3.9626   -7.1113 H         1 UNK         0.2983 
    111 H111       28.4727    5.2134   -9.6514 H         1 UNK         0.0947 
    112 H112       26.0339    5.7053   -9.3668 H         1 UNK         0.0806 
    113 H113       26.9231    6.0444   -7.8923 H         1 UNK         0.0806 
    114 H114       25.9500    4.5774   -8.0208 H         1 UNK         0.0806 
    115 H115       27.4657    1.9623   -8.8100 H         1 UNK         0.3000 
    116 H116       26.6728    1.4197  -11.6567 H         1 UNK         0.0850 
    117 H117       25.2908   -0.4421  -10.6757 H         1 UNK         0.0810 
    118 H118       24.7396    1.1472  -10.1666 H         1 UNK         0.0810 
    119 H119       25.6729    0.1479   -9.0602 H         1 UNK         0.0810 
    120 H120       28.3359    0.1214   -8.7258 H         1 UNK         0.3040 
    121 H121       29.2892   -2.2164  -10.1748 H         1 UNK         0.0766 
    122 H122       30.2016   -2.8329   -7.9627 H         1 UNK         0.0812 
    123 H123       28.5328   -2.3140   -7.7986 H         1 UNK         0.0812 
    124 H124       29.8429   -1.2335   -7.3266 H         1 UNK         0.0812 
    125 H125       30.5561    0.9633   -9.7756 H         1 UNK         0.3205 
    126 H126       32.4797    1.9819  -10.1454 H         1 UNK         0.0754 
    127 H127       34.0049    1.1466  -11.8670 H         1 UNK         0.0769 
    128 H128       32.3542    0.8095  -12.3567 H         1 UNK         0.0769 
    129 H129       33.3697   -0.4840  -11.7204 H         1 UNK         0.0769 
    130 H130       32.2480    0.2051   -7.7340 H         1 UNK         0.2981 
    131 H131       34.9152   -0.6585   -7.1064 H         1 UNK         0.0541 
    132 H132       34.0375    2.5338   -7.3033 H         1 UNK         0.3459 
    133 H133       35.0456    3.1385   -6.0126 H         1 UNK         0.3459 
    134 H134       33.9778   -1.3034   -4.9178 H         1 UNK         0.0612 
    135 H135       33.0678   -1.9268   -6.2509 H         1 UNK         0.0612 
    136 H136       32.9292   -0.7142   -2.9961 H         1 UNK         0.0624 
    137 H137       32.6348    0.9897   -3.2464 H         1 UNK         0.0624 
@<TRIPOS>BOND
     1    1    2 1    
     2    1   72 1    
     3    1   73 1    
     4    1   74 1    
     5    2    3 2    
     6    2    4 am   BACKBONE|DICT|INTERRES
     7    4    5 1    
     8    4   75 1    
     9    5    6 1    
    10    5   35 1    
    11    5   76 1    
    12    6    7 1    
    13    6   77 1    
    14    6   78 1    
    15    7    8 1    
    16    8    9 1    
    17    8   79 1    
    18    8   80 1    
    19    9   10 ar   
    20    9   14 ar   
    21   10   11 ar   
    22   10   81 1    
    23   11   12 ar   
    24   11   71 1    
    25   12   13 ar   
    26   12   82 1    
    27   13   14 ar   
    28   13   15 1    
    29   14   83 1    
    30   15   16 1    
    31   15   84 1    
    32   15   85 1    
    33   16   17 1    
    34   17   18 1    
    35   17   86 1    
    36   17   87 1    
    37   18   19 1    
    38   18   37 1    
    39   18   88 1    
    40   19   20 am   BACKBONE|DICT|INTERRES
    41   19   89 1    
    42   20   21 2    
    43   20   22 1    
    44   22   23 1    
    45   22   24 1    
    46   22   90 1    
    47   23   91 1    
    48   23   92 1    
    49   23   93 1    
    50   24   25 am   BACKBONE|DICT|INTERRES
    51   24   94 1    
    52   25   26 2    
    53   25   27 1    
    54   27   28 1    
    55   27   29 1    
    56   27   95 1    
    57   28   96 1    
    58   28   97 1    
    59   28   98 1    
    60   29   30 am   BACKBONE|DICT|INTERRES
    61   29   99 1    
    62   30   31 2    
    63   30   32 1    
    64   32   33 1    
    65   32   34 1    
    66   32  100 1    
    67   33  101 1    
    68   33  102 1    
    69   33  103 1    
    70   34   35 am   BACKBONE|DICT|INTERRES
    71   34  104 1    
    72   35   36 2    
    73   37   38 2    
    74   37   39 am   BACKBONE|DICT|INTERRES
    75   39   40 1    
    76   39  105 1    
    77   40   41 1    
    78   40   42 1    
    79   40  106 1    
    80   41  107 1    
    81   41  108 1    
    82   41  109 1    
    83   42   43 2    
    84   42   44 am   BACKBONE|DICT|INTERRES
    85   44   45 1    
    86   44  110 1    
    87   45   46 1    
    88   45   47 1    
    89   45  111 1    
    90   46  112 1    
    91   46  113 1    
    92   46  114 1    
    93   47   48 2    
    94   47   49 am   BACKBONE|DICT|INTERRES
    95   49   50 1    
    96   49  115 1    
    97   50   51 1    
    98   50   52 1    
    99   50  116 1    
   100   51  117 1    
   101   51  118 1    
   102   51  119 1    
   103   52   53 2    
   104   52   54 am   BACKBONE|DICT|INTERRES
   105   54   55 1    
   106   54  120 1    
   107   55   56 1    
   108   55   57 1    
   109   55  121 1    
   110   56  122 1    
   111   56  123 1    
   112   56  124 1    
   113   57   58 2    
   114   57   59 am   BACKBONE|DICT|INTERRES
   115   59   60 1    
   116   59  125 1    
   117   60   61 1    
   118   60   62 1    
   119   60  126 1    
   120   61  127 1    
   121   61  128 1    
   122   61  129 1    
   123   62   63 2    
   124   62   64 am   BACKBONE|DICT|INTERRES
   125   64   65 1    
   126   64  130 1    
   127   65   66 1    
   128   65   69 1    
   129   65  131 1    
   130   66   67 am   BACKBONE|DICT|INTERRES
   131   66   68 2    
   132   67  132 1    
   133   67  133 1    
   134   69   70 1    
   135   69  134 1    
   136   69  135 1    
   137   70   71 1    
   138   71  136 1    
   139   71  137 1    
@<TRIPOS>SUBSTRUCTURE
     1 UNK         1 GROUP             0       ****    0 ROOT    
