@<TRIPOS>MOLECULE
3R137
137   139    1
SMALL
USER_CHARGES


@<TRIPOS>ATOM
      1 CA         27.9086   -5.9663    2.6175 C.3       0 UNK        -0.2020 
      2 C          27.9426   -4.9760    1.4629 C.2       0 UNK         0.4855 
      3 O          28.1693   -3.7869    1.6856 O.2       0 UNK        -0.5197 
      4 N          27.7266   -5.4602    0.2323 N.am      1 UNK        -0.4892 
      5 CA         27.6778   -4.6562   -0.9946 C.3       1 UNK         0.0835 
      6 C6         27.7830   -5.5692   -2.2475 C.3       12 UNK        -0.0855 
      7 S7         27.5461   -4.7566   -3.8690 S.3       12 UNK        -0.2931 
      8 C8         29.2516   -4.6464   -4.5171 C.3       12 UNK         0.0378 
      9 C9         30.0760   -3.4403   -4.0569 C.ar      12 UNK        -0.0802 
     10 C10        31.3928   -3.3307   -4.5165 C.ar      12 UNK        -0.0944 
     11 C11        32.1910   -2.2392   -4.1615 C.ar      12 UNK        -0.0787 
     12 C12        31.6761   -1.2598   -3.3101 C.ar      12 UNK        -0.0862 
     13 C13        30.3652   -1.3522   -2.8378 C.ar      12 UNK        -0.0733 
     14 C14        29.5688   -2.4342   -3.2230 C.ar      12 UNK        -0.0832 
     15 C15        29.8149   -0.2923   -1.8948 C.3       12 UNK         0.0240 
     16 S16        28.4197    0.6291   -2.6124 S.3       12 UNK        -0.2522 
     17 C17        29.1835    1.4671   -4.0434 C.3       12 UNK        -0.0967 
     18 CA         28.4647    1.1412   -5.3781 C.3       5 UNK         0.0660 
     19 N          27.0158    1.3875   -5.2861 N.am      5 UNK        -0.4015 
     20 C          26.1144    1.4023   -6.2767 C.2       4 UNK         0.4946 
     21 O          26.3987    1.3077   -7.4707 O.2       4 UNK        -0.5353 
     22 CA         24.6372    1.4980   -5.8600 C.3       4 UNK         0.0277 
     23 CB         23.7594    2.0838   -6.9819 C.3       4 UNK        -0.1981 
     24 N          24.1335    0.1710   -5.5038 N.am      4 UNK        -0.4209 
     25 C          24.4060   -0.4607   -4.3555 C.2       3 UNK         0.4942 
     26 O          25.0302    0.0573   -3.4258 O.2       3 UNK        -0.5208 
     27 CA         23.9202   -1.9117   -4.2426 C.3       3 UNK         0.0250 
     28 CB         24.6324   -2.8178   -5.2662 C.3       3 UNK        -0.1990 
     29 N          24.1859   -2.3948   -2.8902 N.am      3 UNK        -0.4232 
     30 C          23.4960   -3.3315   -2.2335 C.2       2 UNK         0.4993 
     31 O          22.5495   -3.9512   -2.7236 O.2       2 UNK        -0.5286 
     32 CA         23.9582   -3.6365   -0.7935 C.3       2 UNK         0.0209 
     33 CB         22.9380   -4.4857   -0.0115 C.3       2 UNK        -0.1931 
     34 N          25.2527   -4.3226   -0.7766 N.am      2 UNK        -0.4546 
     35 C          26.4367   -3.7362   -1.0025 C.2       1 UNK         0.5154 
     36 O          26.5701   -2.5255   -1.1872 O.2       1 UNK        -0.5181 
     37 C          29.1725    1.8753   -6.5358 C.2       5 UNK         0.5014 
     38 O          29.9863    1.2717   -7.2358 O.2       5 UNK        -0.5248 
     39 N          28.8403    3.1579   -6.7269 N.am      6 UNK        -0.4434 
     40 CA         29.4273    4.0212   -7.7523 C.3       6 UNK         0.0363 
     41 CB         29.1998    5.4887   -7.3543 C.3       6 UNK        -0.1936 
     42 C          28.9059    3.7667   -9.1787 C.2       6 UNK         0.5081 
     43 O          29.5426    4.2327  -10.1236 O.2       6 UNK        -0.5248 
     44 N          27.7716    3.0688   -9.3226 N.am      7 UNK        -0.4718 
     45 CA         27.0947    2.8476  -10.6031 C.3       7 UNK         0.0273 
     46 CB         25.6570    3.3876  -10.5128 C.3       7 UNK        -0.1935 
     47 C          27.0854    1.3662  -10.9990 C.2       7 UNK         0.5018 
     48 O          27.3990    1.0478  -12.1461 O.2       7 UNK        -0.5186 
     49 N          26.7116    0.4916  -10.0565 N.am      8 UNK        -0.4240 
     50 CA         26.5736   -0.9486  -10.2640 C.3       8 UNK         0.0235 
     51 CB         25.6492   -1.5388   -9.1837 C.3       8 UNK        -0.2000 
     52 C          27.9353   -1.6529  -10.2701 C.2       8 UNK         0.4941 
     53 O          28.2302   -2.3957  -11.2072 O.2       8 UNK        -0.5273 
     54 N          28.7355   -1.4050   -9.2249 N.am      9 UNK        -0.4262 
     55 CA         30.0660   -1.9949   -9.0585 C.3       9 UNK         0.0264 
     56 CB         30.3286   -2.2206   -7.5628 C.3       9 UNK        -0.1955 
     57 C          31.1787   -1.1365   -9.6835 C.2       9 UNK         0.5031 
     58 O          32.2453   -1.6736   -9.9848 O.2       9 UNK        -0.5390 
     59 N          30.9127    0.1677   -9.8584 N.am      10 UNK        -0.4204 
     60 CA         31.8333    1.2161  -10.3166 C.3       10 UNK         0.0237 
     61 CB         32.2780    0.9748  -11.7751 C.3       10 UNK        -0.1985 
     62 C          33.0114    1.4371   -9.3450 C.2       10 UNK         0.4970 
     63 O          34.1282    1.7199   -9.7824 O.2       10 UNK        -0.4914 
     64 N          32.7317    1.3144   -8.0420 N.am      11 UNK        -0.4285 
     65 CA         33.6927    1.4714   -6.9389 C.3       11 UNK         0.1007 
     66 C          33.8303    2.9358   -6.4261 C.2       11 UNK         0.5703 
     67 N          33.2114    3.9274   -7.0556 N.am      11 UNK        -0.7361 
     68 O          34.5301    3.1848   -5.4473 O.2       11 UNK        -0.4986 
     69 C69        33.3814    0.4757   -5.7896 C.3       12 UNK        -0.0947 
     70 S70        33.6491   -1.2550   -6.2991 S.3       12 UNK        -0.2240 
     71 C71        33.6093   -2.1198   -4.6982 C.3       12 UNK         0.0194 
     72 H72        27.7085   -6.9829    2.2795 H         1 UNK         0.0906 
     73 H73        28.8645   -5.9655    3.1407 H         1 UNK         0.0906 
     74 H74        27.1313   -5.6866    3.3282 H         1 UNK         0.0906 
     75 H75        27.5575   -6.4500    0.1191 H         1 UNK         0.3140 
     76 H76        28.5531   -4.0032   -0.9881 H         1 UNK         0.1085 
     77 H77        28.7461   -6.0817   -2.2410 H         1 UNK         0.0836 
     78 H78        27.0348   -6.3617   -2.1884 H         1 UNK         0.0836 
     79 H79        29.1834   -4.6149   -5.6048 H         1 UNK         0.0731 
     80 H80        29.7888   -5.5654   -4.2787 H         1 UNK         0.0731 
     81 H81        31.7948   -4.0902   -5.1733 H         1 UNK         0.1312 
     82 H82        32.2961   -0.4218   -3.0223 H         1 UNK         0.1406 
     83 H83        28.5498   -2.4694   -2.8686 H         1 UNK         0.1631 
     84 H84        30.5924    0.4136   -1.5986 H         1 UNK         0.0717 
     85 H85        29.4761   -0.7779   -0.9784 H         1 UNK         0.0717 
     86 H86        29.1618    2.5405   -3.8443 H         1 UNK         0.0934 
     87 H87        30.2390    1.1958   -4.1038 H         1 UNK         0.0934 
     88 H88        28.5788    0.0720   -5.5684 H         1 UNK         0.0739 
     89 H89        26.6527    1.3807   -4.3400 H         1 UNK         0.3093 
     90 H90        24.5640    2.1597   -4.9940 H         1 UNK         0.0818 
     91 H91        24.1179    3.0695   -7.2816 H         1 UNK         0.0819 
     92 H92        23.7587    1.4531   -7.8721 H         1 UNK         0.0819 
     93 H93        22.7262    2.2019   -6.6553 H         1 UNK         0.0819 
     94 H94        23.6310   -0.3260   -6.2250 H         1 UNK         0.3041 
     95 H95        22.8435   -1.9235   -4.4247 H         1 UNK         0.0784 
     96 H96        24.3730   -2.5449   -6.2894 H         1 UNK         0.0793 
     97 H97        25.7170   -2.7470   -5.1749 H         1 UNK         0.0793 
     98 H98        24.3557   -3.8640   -5.1343 H         1 UNK         0.0793 
     99 H99        24.9596   -1.9320   -2.4191 H         1 UNK         0.3024 
    100 H100       24.0595   -2.6799   -0.2750 H         1 UNK         0.1171 
    101 H101       23.2502   -4.6268    1.0235 H         1 UNK         0.0786 
    102 H102       21.9615   -4.0000    0.0099 H         1 UNK         0.0786 
    103 H103       22.8024   -5.4714   -0.4585 H         1 UNK         0.0786 
    104 H104       25.2314   -5.3226   -0.6409 H         1 UNK         0.2977 
    105 H105       28.1437    3.5722   -6.1246 H         1 UNK         0.3127 
    106 H106       30.5028    3.8408   -7.7718 H         1 UNK         0.0770 
    107 H107       28.1382    5.7348   -7.3082 H         1 UNK         0.0814 
    108 H108       29.6595    6.1658   -8.0759 H         1 UNK         0.0814 
    109 H109       29.6406    5.7096   -6.3820 H         1 UNK         0.0814 
    110 H110       27.3376    2.6565   -8.5019 H         1 UNK         0.2983 
    111 H111       27.6007    3.3900  -11.4051 H         1 UNK         0.0947 
    112 H112       25.1207    3.2315  -11.4498 H         1 UNK         0.0806 
    113 H113       25.6505    4.4588  -10.3110 H         1 UNK         0.0806 
    114 H114       25.0867    2.8962   -9.7237 H         1 UNK         0.0806 
    115 H115       26.5000    0.8374   -9.1198 H         1 UNK         0.3000 
    116 H116       26.1046   -1.1155  -11.2365 H         1 UNK         0.0850 
    117 H117       25.5180   -2.6122   -9.3267 H         1 UNK         0.0810 
    118 H118       24.6593   -1.0838   -9.2210 H         1 UNK         0.0810 
    119 H119       26.0450   -1.3896   -8.1784 H         1 UNK         0.0810 
    120 H120       28.4111   -0.7832   -8.4978 H         1 UNK         0.3040 
    121 H121       30.0913   -2.9712   -9.5477 H         1 UNK         0.0766 
    122 H122       30.4296   -1.2855   -7.0123 H         1 UNK         0.0812 
    123 H123       31.2534   -2.7797   -7.4185 H         1 UNK         0.0812 
    124 H124       29.5267   -2.7950   -7.1011 H         1 UNK         0.0812 
    125 H125       30.0217    0.4970   -9.5143 H         1 UNK         0.3205 
    126 H126       31.2618    2.1438  -10.3046 H         1 UNK         0.0754 
    127 H127       32.8379    1.8287  -12.1586 H         1 UNK         0.0769 
    128 H128       31.4197    0.8306  -12.4314 H         1 UNK         0.0769 
    129 H129       32.9212    0.0991  -11.8651 H         1 UNK         0.0769 
    130 H130       31.7704    1.1314   -7.7640 H         1 UNK         0.2981 
    131 H131       34.6860    1.2214   -7.3159 H         1 UNK         0.0541 
    132 H132       32.6768    3.7460   -7.8877 H         1 UNK         0.3459 
    133 H133       33.3217    4.8697   -6.7160 H         1 UNK         0.3459 
    134 H134       32.3506    0.5931   -5.4517 H         1 UNK         0.0612 
    135 H135       34.0187    0.6652   -4.9242 H         1 UNK         0.0612 
    136 H136       34.0382   -3.1144   -4.8285 H         1 UNK         0.0624 
    137 H137       34.2509   -1.6038   -3.9823 H         1 UNK         0.0624 
@<TRIPOS>BOND
     1    1    2 1    
     2    1   72 1    
     3    1   73 1    
     4    1   74 1    
     5    2    3 2    
     6    2    4 am   BACKBONE|DICT|INTERRES
     7    4    5 1    
     8    4   75 1    
     9    5    6 1    
    10    5   35 1    
    11    5   76 1    
    12    6    7 1    
    13    6   77 1    
    14    6   78 1    
    15    7    8 1    
    16    8    9 1    
    17    8   79 1    
    18    8   80 1    
    19    9   10 ar   
    20    9   14 ar   
    21   10   11 ar   
    22   10   81 1    
    23   11   12 ar   
    24   11   71 1    
    25   12   13 ar   
    26   12   82 1    
    27   13   14 ar   
    28   13   15 1    
    29   14   83 1    
    30   15   16 1    
    31   15   84 1    
    32   15   85 1    
    33   16   17 1    
    34   17   18 1    
    35   17   86 1    
    36   17   87 1    
    37   18   19 1    
    38   18   37 1    
    39   18   88 1    
    40   19   20 am   BACKBONE|DICT|INTERRES
    41   19   89 1    
    42   20   21 2    
    43   20   22 1    
    44   22   23 1    
    45   22   24 1    
    46   22   90 1    
    47   23   91 1    
    48   23   92 1    
    49   23   93 1    
    50   24   25 am   BACKBONE|DICT|INTERRES
    51   24   94 1    
    52   25   26 2    
    53   25   27 1    
    54   27   28 1    
    55   27   29 1    
    56   27   95 1    
    57   28   96 1    
    58   28   97 1    
    59   28   98 1    
    60   29   30 am   BACKBONE|DICT|INTERRES
    61   29   99 1    
    62   30   31 2    
    63   30   32 1    
    64   32   33 1    
    65   32   34 1    
    66   32  100 1    
    67   33  101 1    
    68   33  102 1    
    69   33  103 1    
    70   34   35 am   BACKBONE|DICT|INTERRES
    71   34  104 1    
    72   35   36 2    
    73   37   38 2    
    74   37   39 am   BACKBONE|DICT|INTERRES
    75   39   40 1    
    76   39  105 1    
    77   40   41 1    
    78   40   42 1    
    79   40  106 1    
    80   41  107 1    
    81   41  108 1    
    82   41  109 1    
    83   42   43 2    
    84   42   44 am   BACKBONE|DICT|INTERRES
    85   44   45 1    
    86   44  110 1    
    87   45   46 1    
    88   45   47 1    
    89   45  111 1    
    90   46  112 1    
    91   46  113 1    
    92   46  114 1    
    93   47   48 2    
    94   47   49 am   BACKBONE|DICT|INTERRES
    95   49   50 1    
    96   49  115 1    
    97   50   51 1    
    98   50   52 1    
    99   50  116 1    
   100   51  117 1    
   101   51  118 1    
   102   51  119 1    
   103   52   53 2    
   104   52   54 am   BACKBONE|DICT|INTERRES
   105   54   55 1    
   106   54  120 1    
   107   55   56 1    
   108   55   57 1    
   109   55  121 1    
   110   56  122 1    
   111   56  123 1    
   112   56  124 1    
   113   57   58 2    
   114   57   59 am   BACKBONE|DICT|INTERRES
   115   59   60 1    
   116   59  125 1    
   117   60   61 1    
   118   60   62 1    
   119   60  126 1    
   120   61  127 1    
   121   61  128 1    
   122   61  129 1    
   123   62   63 2    
   124   62   64 am   BACKBONE|DICT|INTERRES
   125   64   65 1    
   126   64  130 1    
   127   65   66 1    
   128   65   69 1    
   129   65  131 1    
   130   66   67 am   BACKBONE|DICT|INTERRES
   131   66   68 2    
   132   67  132 1    
   133   67  133 1    
   134   69   70 1    
   135   69  134 1    
   136   69  135 1    
   137   70   71 1    
   138   71  136 1    
   139   71  137 1    
@<TRIPOS>SUBSTRUCTURE
     1 UNK         1 GROUP             0       ****    0 ROOT    
