@<TRIPOS>MOLECULE
3R137
137   139    1
SMALL
USER_CHARGES


@<TRIPOS>ATOM
      1 CA         25.0780   -6.3717    0.7661 C.3       0 UNK        -0.2020 
      2 C          25.8747   -5.1432    0.3548 C.2       0 UNK         0.4855 
      3 O          25.8598   -4.1362    1.0625 O.2       0 UNK        -0.5197 
      4 N          26.5571   -5.2051   -0.7951 N.am      1 UNK        -0.4892 
      5 CA         27.4241   -4.1552   -1.3508 C.3       1 UNK         0.0835 
      6 C6         28.4694   -4.7556   -2.3285 C.3       12 UNK        -0.0855 
      7 S7         29.7505   -5.7550   -1.4910 S.3       12 UNK        -0.2931 
      8 C8         30.8793   -4.5019   -0.7732 C.3       12 UNK         0.0378 
      9 C9         31.1220   -3.3089   -1.6906 C.ar      12 UNK        -0.0802 
     10 C10        31.8206   -3.4663   -2.8906 C.ar      12 UNK        -0.0944 
     11 C11        31.9628   -2.3943   -3.7783 C.ar      12 UNK        -0.0787 
     12 C12        31.3984   -1.1544   -3.4537 C.ar      12 UNK        -0.0862 
     13 C13        30.7272   -0.9747   -2.2401 C.ar      12 UNK        -0.0733 
     14 C14        30.6015   -2.0546   -1.3603 C.ar      12 UNK        -0.0832 
     15 C15        30.1349    0.3801   -1.8732 C.3       12 UNK         0.0240 
     16 S16        28.3400    0.2551   -1.5950 S.3       12 UNK        -0.2522 
     17 C17        27.6449    1.5765   -2.6381 C.3       12 UNK        -0.0967 
     18 CA         27.8753    1.4213   -4.1656 C.3       5 UNK         0.0660 
     19 N          27.6630    0.0601   -4.6732 N.am      5 UNK        -0.4015 
     20 C          27.9524   -0.3317   -5.9245 C.2       4 UNK         0.4946 
     21 O          28.4892    0.3903   -6.7633 O.2       4 UNK        -0.5353 
     22 CA         27.5323   -1.7480   -6.3360 C.3       4 UNK         0.0277 
     23 CB         28.6285   -2.7645   -5.9793 C.3       4 UNK        -0.1981 
     24 N          26.2574   -2.1271   -5.7268 N.am      4 UNK        -0.4209 
     25 C          25.0676   -1.6499   -6.1209 C.2       3 UNK         0.4942 
     26 O          24.9221   -0.8864   -7.0757 O.2       3 UNK        -0.5208 
     27 CA         23.8367   -2.0596   -5.2916 C.3       3 UNK         0.0250 
     28 CB         23.2907   -3.4145   -5.7688 C.3       3 UNK        -0.1990 
     29 N          24.0985   -2.1161   -3.8503 N.am      3 UNK        -0.4232 
     30 C          24.4336   -1.0566   -3.1010 C.2       2 UNK         0.4993 
     31 O          24.5221    0.0896   -3.5411 O.2       2 UNK        -0.5286 
     32 CA         24.7765   -1.3189   -1.6235 C.3       2 UNK         0.0209 
     33 CB         23.4978   -1.3202   -0.7711 C.3       2 UNK        -0.1931 
     34 N          25.5489   -2.5385   -1.3392 N.am      2 UNK        -0.4546 
     35 C          26.6400   -2.9778   -1.9838 C.2       1 UNK         0.5154 
     36 O          27.0376   -2.4804   -3.0372 O.2       1 UNK        -0.5181 
     37 C          27.0158    2.4500   -4.9285 C.2       5 UNK         0.5014 
     38 O          27.5248    3.5083   -5.2990 O.2       5 UNK        -0.5248 
     39 N          25.7370    2.1111   -5.1562 N.am      6 UNK        -0.4434 
     40 CA         24.7793    2.9086   -5.9244 C.3       6 UNK         0.0363 
     41 CB         23.3722    2.3083   -5.7754 C.3       6 UNK        -0.1936 
     42 C          25.1598    3.0371   -7.4085 C.2       6 UNK         0.5081 
     43 O          25.0293    4.1255   -7.9696 O.2       6 UNK        -0.5248 
     44 N          25.6311    1.9372   -8.0145 N.am      7 UNK        -0.4718 
     45 CA         26.1408    1.9120   -9.3886 C.3       7 UNK         0.0273 
     46 CB         26.3004    0.4554   -9.8504 C.3       7 UNK        -0.1935 
     47 C          27.4666    2.6755   -9.5483 C.2       7 UNK         0.5018 
     48 O          27.6755    3.3079  -10.5847 O.2       7 UNK        -0.5186 
     49 N          28.3364    2.5881   -8.5309 N.am      8 UNK        -0.4240 
     50 CA         29.6683    3.1883   -8.3850 C.3       8 UNK         0.0235 
     51 CB         29.6186    4.7270   -8.4517 C.3       8 UNK        -0.2000 
     52 C          30.7079    2.6049   -9.3535 C.2       8 UNK         0.4941 
     53 O          31.7241    2.0743   -8.9035 O.2       8 UNK        -0.5273 
     54 N          30.4159    2.6619  -10.6602 N.am      9 UNK        -0.4262 
     55 CA         31.2320    2.1190  -11.7520 C.3       9 UNK         0.0264 
     56 CB         30.5910    2.4932  -13.0975 C.3       9 UNK        -0.1955 
     57 C          31.4494    0.5981  -11.6626 C.2       9 UNK         0.5031 
     58 O          32.4786    0.1068  -12.1273 O.2       9 UNK        -0.5390 
     59 N          30.5102   -0.1089  -11.0170 N.am      10 UNK        -0.4204 
     60 CA         30.5922   -1.5314  -10.6756 C.3       10 UNK         0.0237 
     61 CB         29.2757   -1.9604  -10.0084 C.3       10 UNK        -0.1985 
     62 C          31.7846   -1.8879   -9.7671 C.2       10 UNK         0.4970 
     63 O          32.2476   -3.0278   -9.8190 O.2       10 UNK        -0.4914 
     64 N          32.2606   -0.9204   -8.9709 N.am      11 UNK        -0.4285 
     65 CA         33.4619   -1.0338   -8.1345 C.3       11 UNK         0.1007 
     66 C          34.7592   -0.5274   -8.8349 C.2       11 UNK         0.5703 
     67 N          34.7292   -0.1267  -10.1019 N.am      11 UNK        -0.7361 
     68 O          35.8264   -0.5153   -8.2265 O.2       11 UNK        -0.4986 
     69 C69        33.2250   -0.3875   -6.7386 C.3       12 UNK        -0.0947 
     70 S70        33.9928   -1.3604   -5.4001 S.3       12 UNK        -0.2240 
     71 C71        32.6936   -2.6043   -5.0990 C.3       12 UNK         0.0194 
     72 H72        25.1781   -7.1835    0.0459 H         1 UNK         0.0906 
     73 H73        25.4221   -6.7339    1.7345 H         1 UNK         0.0906 
     74 H74        24.0208   -6.1221    0.8517 H         1 UNK         0.0906 
     75 H75        26.5173   -6.0558   -1.3389 H         1 UNK         0.3140 
     76 H76        27.9737   -3.7036   -0.5224 H         1 UNK         0.1085 
     77 H77        27.9713   -5.3854   -3.0674 H         1 UNK         0.0836 
     78 H78        28.9725   -3.9890   -2.9158 H         1 UNK         0.0836 
     79 H79        31.8332   -4.9775   -0.5411 H         1 UNK         0.0731 
     80 H80        30.4672   -4.1716    0.1816 H         1 UNK         0.0731 
     81 H81        32.2231   -4.4374   -3.1453 H         1 UNK         0.1312 
     82 H82        31.4911   -0.3271   -4.1434 H         1 UNK         0.1406 
     83 H83        30.0655   -1.9203   -0.4306 H         1 UNK         0.1631 
     84 H84        30.3533    1.1211   -2.6421 H         1 UNK         0.0717 
     85 H85        30.6085    0.7415   -0.9596 H         1 UNK         0.0717 
     86 H86        26.5767    1.6100   -2.4142 H         1 UNK         0.0934 
     87 H87        28.0477    2.5313   -2.2943 H         1 UNK         0.0934 
     88 H88        28.9179    1.6678   -4.3744 H         1 UNK         0.0739 
     89 H89        27.2789   -0.6183   -4.0241 H         1 UNK         0.3093 
     90 H90        27.4022   -1.7612   -7.4195 H         1 UNK         0.0818 
     91 H91        29.5418   -2.5541   -6.5370 H         1 UNK         0.0819 
     92 H92        28.8854   -2.7321   -4.9205 H         1 UNK         0.0819 
     93 H93        28.3260   -3.7827   -6.2235 H         1 UNK         0.0819 
     94 H94        26.3147   -2.6441   -4.8553 H         1 UNK         0.3041 
     95 H95        23.0655   -1.3043   -5.4580 H         1 UNK         0.0784 
     96 H96        23.0690   -3.3903   -6.8369 H         1 UNK         0.0793 
     97 H97        24.0060   -4.2210   -5.6025 H         1 UNK         0.0793 
     98 H98        22.3654   -3.6734   -5.2537 H         1 UNK         0.0793 
     99 H99        24.0659   -3.0233   -3.4084 H         1 UNK         0.3024 
    100 H100       25.3944   -0.4803   -1.2973 H         1 UNK         0.1171 
    101 H101       23.7306   -1.3570    0.2934 H         1 UNK         0.0786 
    102 H102       22.9119   -0.4156   -0.9412 H         1 UNK         0.0786 
    103 H103       22.8587   -2.1728   -1.0042 H         1 UNK         0.0786 
    104 H104       25.3392   -3.0079   -0.4634 H         1 UNK         0.2977 
    105 H105       25.3783    1.2547   -4.7372 H         1 UNK         0.3127 
    106 H106       24.7679    3.9136   -5.4974 H         1 UNK         0.0770 
    107 H107       23.3265    1.2876   -6.1569 H         1 UNK         0.0814 
    108 H108       22.6359    2.8966   -6.3244 H         1 UNK         0.0814 
    109 H109       23.0587    2.2880   -4.7315 H         1 UNK         0.0814 
    110 H110       25.6376    1.0600   -7.5046 H         1 UNK         0.2983 
    111 H111       25.4037    2.3959  -10.0333 H         1 UNK         0.0947 
    112 H112       26.6791    0.4051  -10.8722 H         1 UNK         0.0806 
    113 H113       25.3462   -0.0716   -9.8319 H         1 UNK         0.0806 
    114 H114       26.9938   -0.0929   -9.2133 H         1 UNK         0.0806 
    115 H115       28.0985    1.9458   -7.7778 H         1 UNK         0.3000 
    116 H116       29.9941    2.9186   -7.3787 H         1 UNK         0.0850 
    117 H117       30.6014    5.1555   -8.2518 H         1 UNK         0.0810 
    118 H118       28.9318    5.1283   -7.7061 H         1 UNK         0.0810 
    119 H119       29.2998    5.0898   -9.4291 H         1 UNK         0.0810 
    120 H120       29.5193    3.0741  -10.9101 H         1 UNK         0.3040 
    121 H121       32.2146    2.5916  -11.6934 H         1 UNK         0.0766 
    122 H122       30.5169    3.5745  -13.2144 H         1 UNK         0.0812 
    123 H123       29.5882    2.0755  -13.1973 H         1 UNK         0.0812 
    124 H124       31.1861    2.1186  -13.9317 H         1 UNK         0.0812 
    125 H125       29.7056    0.3930  -10.6732 H         1 UNK         0.3205 
    126 H126       30.7100   -2.0895  -11.6067 H         1 UNK         0.0754 
    127 H127       29.2915   -3.0215   -9.7552 H         1 UNK         0.0769 
    128 H128       28.4225   -1.7995  -10.6676 H         1 UNK         0.0769 
    129 H129       29.1012   -1.4079   -9.0846 H         1 UNK         0.0769 
    130 H130       31.8570    0.0090   -9.0164 H         1 UNK         0.2981 
    131 H131       33.6422   -2.0983   -7.9759 H         1 UNK         0.0541 
    132 H132       35.5838    0.1885  -10.5321 H         1 UNK         0.3459 
    133 H133       33.8735   -0.1435  -10.6440 H         1 UNK         0.3459 
    134 H134       32.1584   -0.3040   -6.5215 H         1 UNK         0.0612 
    135 H135       33.6049    0.6351   -6.7019 H         1 UNK         0.0612 
    136 H136       31.9682   -2.6065   -5.9133 H         1 UNK         0.0624 
    137 H137       33.1681   -3.5865   -5.1180 H         1 UNK         0.0624 
@<TRIPOS>BOND
     1    1    2 1    
     2    1   72 1    
     3    1   73 1    
     4    1   74 1    
     5    2    3 2    
     6    2    4 am   BACKBONE|DICT|INTERRES
     7    4    5 1    
     8    4   75 1    
     9    5    6 1    
    10    5   35 1    
    11    5   76 1    
    12    6    7 1    
    13    6   77 1    
    14    6   78 1    
    15    7    8 1    
    16    8    9 1    
    17    8   79 1    
    18    8   80 1    
    19    9   10 ar   
    20    9   14 ar   
    21   10   11 ar   
    22   10   81 1    
    23   11   12 ar   
    24   11   71 1    
    25   12   13 ar   
    26   12   82 1    
    27   13   14 ar   
    28   13   15 1    
    29   14   83 1    
    30   15   16 1    
    31   15   84 1    
    32   15   85 1    
    33   16   17 1    
    34   17   18 1    
    35   17   86 1    
    36   17   87 1    
    37   18   19 1    
    38   18   37 1    
    39   18   88 1    
    40   19   20 am   BACKBONE|DICT|INTERRES
    41   19   89 1    
    42   20   21 2    
    43   20   22 1    
    44   22   23 1    
    45   22   24 1    
    46   22   90 1    
    47   23   91 1    
    48   23   92 1    
    49   23   93 1    
    50   24   25 am   BACKBONE|DICT|INTERRES
    51   24   94 1    
    52   25   26 2    
    53   25   27 1    
    54   27   28 1    
    55   27   29 1    
    56   27   95 1    
    57   28   96 1    
    58   28   97 1    
    59   28   98 1    
    60   29   30 am   BACKBONE|DICT|INTERRES
    61   29   99 1    
    62   30   31 2    
    63   30   32 1    
    64   32   33 1    
    65   32   34 1    
    66   32  100 1    
    67   33  101 1    
    68   33  102 1    
    69   33  103 1    
    70   34   35 am   BACKBONE|DICT|INTERRES
    71   34  104 1    
    72   35   36 2    
    73   37   38 2    
    74   37   39 am   BACKBONE|DICT|INTERRES
    75   39   40 1    
    76   39  105 1    
    77   40   41 1    
    78   40   42 1    
    79   40  106 1    
    80   41  107 1    
    81   41  108 1    
    82   41  109 1    
    83   42   43 2    
    84   42   44 am   BACKBONE|DICT|INTERRES
    85   44   45 1    
    86   44  110 1    
    87   45   46 1    
    88   45   47 1    
    89   45  111 1    
    90   46  112 1    
    91   46  113 1    
    92   46  114 1    
    93   47   48 2    
    94   47   49 am   BACKBONE|DICT|INTERRES
    95   49   50 1    
    96   49  115 1    
    97   50   51 1    
    98   50   52 1    
    99   50  116 1    
   100   51  117 1    
   101   51  118 1    
   102   51  119 1    
   103   52   53 2    
   104   52   54 am   BACKBONE|DICT|INTERRES
   105   54   55 1    
   106   54  120 1    
   107   55   56 1    
   108   55   57 1    
   109   55  121 1    
   110   56  122 1    
   111   56  123 1    
   112   56  124 1    
   113   57   58 2    
   114   57   59 am   BACKBONE|DICT|INTERRES
   115   59   60 1    
   116   59  125 1    
   117   60   61 1    
   118   60   62 1    
   119   60  126 1    
   120   61  127 1    
   121   61  128 1    
   122   61  129 1    
   123   62   63 2    
   124   62   64 am   BACKBONE|DICT|INTERRES
   125   64   65 1    
   126   64  130 1    
   127   65   66 1    
   128   65   69 1    
   129   65  131 1    
   130   66   67 am   BACKBONE|DICT|INTERRES
   131   66   68 2    
   132   67  132 1    
   133   67  133 1    
   134   69   70 1    
   135   69  134 1    
   136   69  135 1    
   137   70   71 1    
   138   71  136 1    
   139   71  137 1    
@<TRIPOS>SUBSTRUCTURE
     1 UNK         1 GROUP             0       ****    0 ROOT    
