@<TRIPOS>MOLECULE
3R137
137   139    1
SMALL
USER_CHARGES


@<TRIPOS>ATOM
      1 CA         25.0438   -6.6451   -0.9769 C.3       0 UNK        -0.2020 
      2 C          25.9438   -5.4198   -1.0218 C.2       0 UNK         0.4855 
      3 O          25.9836   -4.6512   -0.0596 O.2       0 UNK        -0.5197 
      4 N          26.6670   -5.2248   -2.1315 N.am      1 UNK        -0.4892 
      5 CA         27.5820   -4.1020   -2.3586 C.3       1 UNK         0.0835 
      6 C6         28.6467   -4.4314   -3.4419 C.3       12 UNK        -0.0855 
      7 S7         29.8527   -5.7118   -2.9359 S.3       12 UNK        -0.2931 
      8 C8         30.9283   -4.8712   -1.7155 C.3       12 UNK         0.0378 
      9 C9         31.6697   -3.6669   -2.2859 C.ar      12 UNK        -0.0802 
     10 C10        32.9686   -3.7836   -2.7886 C.ar      12 UNK        -0.0944 
     11 C11        33.6371   -2.6615   -3.2934 C.ar      12 UNK        -0.0787 
     12 C12        32.9754   -1.4285   -3.3421 C.ar      12 UNK        -0.0862 
     13 C13        31.6693   -1.2982   -2.8581 C.ar      12 UNK        -0.0733 
     14 C14        31.0524   -2.4168   -2.2835 C.ar      12 UNK        -0.0832 
     15 C15        30.9467    0.0466   -2.9908 C.3       12 UNK         0.0240 
     16 S16        29.1287   -0.0954   -2.8845 S.3       12 UNK        -0.2522 
     17 C17        28.5145    1.4430   -3.6219 C.3       12 UNK        -0.0967 
     18 CA         28.1610    1.3115   -5.1272 C.3       5 UNK         0.0660 
     19 N          27.3876    0.1113   -5.4857 N.am      5 UNK        -0.4015 
     20 C          27.1769   -0.2907   -6.7496 C.2       4 UNK         0.4946 
     21 O          27.7362    0.2213   -7.7191 O.2       4 UNK        -0.5353 
     22 CA         26.1605   -1.4150   -7.0076 C.3       4 UNK         0.0277 
     23 CB         26.8429   -2.7782   -7.1949 C.3       4 UNK        -0.1981 
     24 N          25.1554   -1.5054   -5.9530 N.am      4 UNK        -0.4209 
     25 C          24.0804   -0.7120   -5.8667 C.2       3 UNK         0.4942 
     26 O          23.7952    0.1447   -6.7033 O.2       3 UNK        -0.5208 
     27 CA         23.1964   -0.8766   -4.6176 C.3       3 UNK         0.0250 
     28 CB         22.1362   -1.9652   -4.8465 C.3       3 UNK        -0.1990 
     29 N          23.9600   -1.1833   -3.4032 N.am      3 UNK        -0.4232 
     30 C          24.8513   -0.3524   -2.8463 C.2       2 UNK         0.4993 
     31 O          25.1183    0.7637   -3.2959 O.2       2 UNK        -0.5286 
     32 CA         25.6027   -0.8639   -1.6051 C.3       2 UNK         0.0209 
     33 CB         24.7260   -0.7185   -0.3510 C.3       2 UNK        -0.1931 
     34 N          26.1327   -2.2362   -1.6714 N.am      2 UNK        -0.4546 
     35 C          26.8082   -2.8036   -2.6824 C.2       1 UNK         0.5154 
     36 O          26.8473   -2.3401   -3.8215 O.2       1 UNK        -0.5181 
     37 C          27.4214    2.5769   -5.5952 C.2       5 UNK         0.5014 
     38 O          28.0322    3.4374   -6.2282 O.2       5 UNK        -0.5248 
     39 N          26.1097    2.6410   -5.3146 N.am      6 UNK        -0.4434 
     40 CA         25.2073    3.7141   -5.7448 C.3       6 UNK         0.0363 
     41 CB         23.8209    3.4973   -5.1181 C.3       6 UNK        -0.1936 
     42 C          25.0991    3.8425   -7.2754 C.2       6 UNK         0.5081 
     43 O          25.0106    4.9597   -7.7846 O.2       6 UNK        -0.5248 
     44 N          25.1473    2.7047   -7.9816 N.am      7 UNK        -0.4718 
     45 CA         25.1974    2.6311   -9.4450 C.3       7 UNK         0.0273 
     46 CB         24.7435    1.2294   -9.8852 C.3       7 UNK        -0.1935 
     47 C          26.5864    2.9459  -10.0379 C.2       7 UNK         0.5018 
     48 O          26.6903    3.0632  -11.2595 O.2       7 UNK        -0.5186 
     49 N          27.6212    3.0433   -9.1867 N.am      8 UNK        -0.4240 
     50 CA         29.0447    3.1981   -9.5170 C.3       8 UNK         0.0235 
     51 CB         29.3154    4.5654  -10.1806 C.3       8 UNK        -0.2000 
     52 C          29.6107    2.0097  -10.3227 C.2       8 UNK         0.4941 
     53 O          30.4936    2.1982  -11.1618 O.2       8 UNK        -0.5273 
     54 N          29.0874    0.8082  -10.0511 N.am      9 UNK        -0.4262 
     55 CA         29.4687   -0.4516  -10.6851 C.3       9 UNK         0.0264 
     56 CB         28.1941   -1.2477  -11.0125 C.3       9 UNK        -0.1955 
     57 C          30.4018   -1.2816   -9.7905 C.2       9 UNK         0.5031 
     58 O          31.2529   -1.9966  -10.3219 O.2       9 UNK        -0.5390 
     59 N          30.2333   -1.1933   -8.4625 N.am      10 UNK        -0.4204 
     60 CA         31.0744   -1.8887   -7.4874 C.3       10 UNK         0.0237 
     61 CB         30.3489   -2.0122   -6.1387 C.3       10 UNK        -0.1985 
     62 C          32.4162   -1.1652   -7.3183 C.2       10 UNK         0.4970 
     63 O          32.4468   -0.0746   -6.7434 O.2       10 UNK        -0.4914 
     64 N          33.4862   -1.8030   -7.8063 N.am      11 UNK        -0.4285 
     65 CA         34.8860   -1.3656   -7.6902 C.3       11 UNK         0.1007 
     66 C          35.1693    0.0002   -8.3914 C.2       11 UNK         0.5703 
     67 N          36.2065    0.7280   -7.9960 N.am      11 UNK        -0.7361 
     68 O          34.4906    0.3830   -9.3429 O.2       11 UNK        -0.4986 
     69 C69        35.4098   -1.4598   -6.2255 C.3       12 UNK        -0.0947 
     70 S70        35.2328   -3.1374   -5.5249 S.3       12 UNK        -0.2240 
     71 C71        35.0859   -2.7808   -3.7478 C.3       12 UNK         0.0194 
     72 H72        24.0054   -6.3429   -0.8433 H         1 UNK         0.0906 
     73 H73        25.1110   -7.2349   -1.8909 H         1 UNK         0.0906 
     74 H74        25.3231   -7.2843   -0.1398 H         1 UNK         0.0906 
     75 H75        26.5924   -5.8836   -2.8939 H         1 UNK         0.3140 
     76 H76        28.1154   -3.9051   -1.4268 H         1 UNK         0.1085 
     77 H77        29.1945   -3.5418   -3.7514 H         1 UNK         0.0836 
     78 H78        28.1529   -4.7795   -4.3508 H         1 UNK         0.0836 
     79 H79        31.6494   -5.5971   -1.3366 H         1 UNK         0.0731 
     80 H80        30.3335   -4.5707   -0.8519 H         1 UNK         0.0731 
     81 H81        33.4668   -4.7434   -2.7694 H         1 UNK         0.1312 
     82 H82        33.4764   -0.5663   -3.7596 H         1 UNK         0.1406 
     83 H83        30.0623   -2.3385   -1.8617 H         1 UNK         0.1631 
     84 H84        31.2027    0.4952   -3.9524 H         1 UNK         0.0717 
     85 H85        31.3007    0.7272   -2.2157 H         1 UNK         0.0717 
     86 H86        27.6393    1.7388   -3.0402 H         1 UNK         0.0934 
     87 H87        29.2533    2.2325   -3.4707 H         1 UNK         0.0934 
     88 H88        29.1028    1.2613   -5.6783 H         1 UNK         0.0739 
     89 H89        26.9751   -0.4169   -4.7254 H         1 UNK         0.3093 
     90 H90        25.6568   -1.1782   -7.9460 H         1 UNK         0.0818 
     91 H91        27.2587   -3.1583   -6.2630 H         1 UNK         0.0819 
     92 H92        26.1346   -3.5204   -7.5629 H         1 UNK         0.0819 
     93 H93        27.6532   -2.7198   -7.9225 H         1 UNK         0.0819 
     94 H94        25.3858   -2.1076   -5.1695 H         1 UNK         0.3041 
     95 H95        22.6817    0.0730   -4.4554 H         1 UNK         0.0784 
     96 H96        21.5410   -1.7483   -5.7349 H         1 UNK         0.0793 
     97 H97        22.5883   -2.9476   -4.9890 H         1 UNK         0.0793 
     98 H98        21.4463   -2.0308   -4.0050 H         1 UNK         0.0793 
     99 H99        23.8158   -2.0885   -2.9796 H         1 UNK         0.3024 
    100 H100       26.4662   -0.2080   -1.4803 H         1 UNK         0.1171 
    101 H101       25.2961   -0.9175    0.5567 H         1 UNK         0.0786 
    102 H102       24.3281    0.2939   -0.2647 H         1 UNK         0.0786 
    103 H103       23.8773   -1.4033   -0.3698 H         1 UNK         0.0786 
    104 H104       26.0897   -2.7736   -0.8108 H         1 UNK         0.2977 
    105 H105       25.7017    1.9066   -4.7393 H         1 UNK         0.3127 
    106 H106       25.6116    4.6543   -5.3643 H         1 UNK         0.0770 
    107 H107       23.3705    2.5608   -5.4486 H         1 UNK         0.0814 
    108 H108       23.1384    4.3028   -5.3921 H         1 UNK         0.0814 
    109 H109       23.8766    3.4745   -4.0296 H         1 UNK         0.0814 
    110 H110       25.1448    1.8252   -7.4797 H         1 UNK         0.2983 
    111 H111       24.4958    3.3622   -9.8527 H         1 UNK         0.0947 
    112 H112       24.6546    1.1712  -10.9708 H         1 UNK         0.0806 
    113 H113       23.7700    0.9729   -9.4665 H         1 UNK         0.0806 
    114 H114       25.4560    0.4638   -9.5791 H         1 UNK         0.0806 
    115 H115       27.4258    2.9501   -8.1964 H         1 UNK         0.3000 
    116 H116       29.5747    3.1877   -8.5633 H         1 UNK         0.0850 
    117 H117       30.3862    4.7414  -10.2899 H         1 UNK         0.0810 
    118 H118       28.9135    5.3824   -9.5815 H         1 UNK         0.0810 
    119 H119       28.8736    4.6284  -11.1754 H         1 UNK         0.0810 
    120 H120       28.4074    0.7414   -9.2947 H         1 UNK         0.3040 
    121 H121       29.9946   -0.2539  -11.6216 H         1 UNK         0.0766 
    122 H122       27.5517   -0.6967  -11.6996 H         1 UNK         0.0812 
    123 H123       27.6117   -1.4682  -10.1173 H         1 UNK         0.0812 
    124 H124       28.4381   -2.1987  -11.4879 H         1 UNK         0.0812 
    125 H125       29.5138   -0.5764   -8.1012 H         1 UNK         0.3205 
    126 H126       31.2602   -2.9037   -7.8463 H         1 UNK         0.0754 
    127 H127       30.9911   -2.4926   -5.3995 H         1 UNK         0.0769 
    128 H128       29.4560   -2.6252   -6.2205 H         1 UNK         0.0769 
    129 H129       30.0625   -1.0409   -5.7373 H         1 UNK         0.0769 
    130 H130       33.3439   -2.6645   -8.3124 H         1 UNK         0.2981 
    131 H131       35.4537   -2.0865   -8.2791 H         1 UNK         0.0541 
    132 H132       36.7955    0.4281   -7.2358 H         1 UNK         0.3459 
    133 H133       36.4000    1.5977   -8.4675 H         1 UNK         0.3459 
    134 H134       34.8928   -0.7379   -5.5931 H         1 UNK         0.0612 
    135 H135       36.4704   -1.2111   -6.1741 H         1 UNK         0.0612 
    136 H136       35.6376   -1.8721   -3.5021 H         1 UNK         0.0624 
    137 H137       35.5766   -3.5842   -3.1964 H         1 UNK         0.0624 
@<TRIPOS>BOND
     1    1    2 1    
     2    1   72 1    
     3    1   73 1    
     4    1   74 1    
     5    2    3 2    
     6    2    4 am   BACKBONE|DICT|INTERRES
     7    4    5 1    
     8    4   75 1    
     9    5    6 1    
    10    5   35 1    
    11    5   76 1    
    12    6    7 1    
    13    6   77 1    
    14    6   78 1    
    15    7    8 1    
    16    8    9 1    
    17    8   79 1    
    18    8   80 1    
    19    9   10 ar   
    20    9   14 ar   
    21   10   11 ar   
    22   10   81 1    
    23   11   12 ar   
    24   11   71 1    
    25   12   13 ar   
    26   12   82 1    
    27   13   14 ar   
    28   13   15 1    
    29   14   83 1    
    30   15   16 1    
    31   15   84 1    
    32   15   85 1    
    33   16   17 1    
    34   17   18 1    
    35   17   86 1    
    36   17   87 1    
    37   18   19 1    
    38   18   37 1    
    39   18   88 1    
    40   19   20 am   BACKBONE|DICT|INTERRES
    41   19   89 1    
    42   20   21 2    
    43   20   22 1    
    44   22   23 1    
    45   22   24 1    
    46   22   90 1    
    47   23   91 1    
    48   23   92 1    
    49   23   93 1    
    50   24   25 am   BACKBONE|DICT|INTERRES
    51   24   94 1    
    52   25   26 2    
    53   25   27 1    
    54   27   28 1    
    55   27   29 1    
    56   27   95 1    
    57   28   96 1    
    58   28   97 1    
    59   28   98 1    
    60   29   30 am   BACKBONE|DICT|INTERRES
    61   29   99 1    
    62   30   31 2    
    63   30   32 1    
    64   32   33 1    
    65   32   34 1    
    66   32  100 1    
    67   33  101 1    
    68   33  102 1    
    69   33  103 1    
    70   34   35 am   BACKBONE|DICT|INTERRES
    71   34  104 1    
    72   35   36 2    
    73   37   38 2    
    74   37   39 am   BACKBONE|DICT|INTERRES
    75   39   40 1    
    76   39  105 1    
    77   40   41 1    
    78   40   42 1    
    79   40  106 1    
    80   41  107 1    
    81   41  108 1    
    82   41  109 1    
    83   42   43 2    
    84   42   44 am   BACKBONE|DICT|INTERRES
    85   44   45 1    
    86   44  110 1    
    87   45   46 1    
    88   45   47 1    
    89   45  111 1    
    90   46  112 1    
    91   46  113 1    
    92   46  114 1    
    93   47   48 2    
    94   47   49 am   BACKBONE|DICT|INTERRES
    95   49   50 1    
    96   49  115 1    
    97   50   51 1    
    98   50   52 1    
    99   50  116 1    
   100   51  117 1    
   101   51  118 1    
   102   51  119 1    
   103   52   53 2    
   104   52   54 am   BACKBONE|DICT|INTERRES
   105   54   55 1    
   106   54  120 1    
   107   55   56 1    
   108   55   57 1    
   109   55  121 1    
   110   56  122 1    
   111   56  123 1    
   112   56  124 1    
   113   57   58 2    
   114   57   59 am   BACKBONE|DICT|INTERRES
   115   59   60 1    
   116   59  125 1    
   117   60   61 1    
   118   60   62 1    
   119   60  126 1    
   120   61  127 1    
   121   61  128 1    
   122   61  129 1    
   123   62   63 2    
   124   62   64 am   BACKBONE|DICT|INTERRES
   125   64   65 1    
   126   64  130 1    
   127   65   66 1    
   128   65   69 1    
   129   65  131 1    
   130   66   67 am   BACKBONE|DICT|INTERRES
   131   66   68 2    
   132   67  132 1    
   133   67  133 1    
   134   69   70 1    
   135   69  134 1    
   136   69  135 1    
   137   70   71 1    
   138   71  136 1    
   139   71  137 1    
@<TRIPOS>SUBSTRUCTURE
     1 UNK         1 GROUP             0       ****    0 ROOT    
