@<TRIPOS>MOLECULE
3R137
137   139    1
SMALL
USER_CHARGES


@<TRIPOS>ATOM
      1 CA         26.1296   -0.4666    2.7857 C.3       0 UNK        -0.2020 
      2 C          26.4985   -0.3504    1.3144 C.2       0 UNK         0.4855 
      3 O          26.9358    0.7132    0.8755 O.2       0 UNK        -0.5197 
      4 N          26.3236   -1.4357    0.5479 N.am      1 UNK        -0.4892 
      5 CA         26.6139   -1.4977   -0.8920 C.3       1 UNK         0.0835 
      6 C6         26.8424   -2.9633   -1.3460 C.3       12 UNK        -0.0855 
      7 S7         27.8948   -3.0777   -2.8297 S.3       12 UNK        -0.2931 
      8 C8         29.4953   -3.6179   -2.1471 C.3       12 UNK         0.0378 
      9 C9         30.5703   -3.5916   -3.2258 C.ar      12 UNK        -0.0802 
     10 C10        31.7037   -2.7828   -3.0960 C.ar      12 UNK        -0.0944 
     11 C11        32.6632   -2.7330   -4.1136 C.ar      12 UNK        -0.0787 
     12 C12        32.4775   -3.4937   -5.2728 C.ar      12 UNK        -0.0862 
     13 C13        31.3451   -4.3018   -5.4164 C.ar      12 UNK        -0.0733 
     14 C14        30.4142   -4.3662   -4.3761 C.ar      12 UNK        -0.0832 
     15 C15        31.1323   -5.1213   -6.6819 C.3       12 UNK         0.0240 
     16 S16        29.4350   -4.9719   -7.3374 S.3       12 UNK        -0.2522 
     17 C17        29.4673   -3.3444   -8.1644 C.3       12 UNK        -0.0967 
     18 CA         28.6418   -2.2138   -7.4832 C.3       5 UNK         0.0660 
     19 N          27.3892   -2.6703   -6.8690 N.am      5 UNK        -0.4015 
     20 C          26.3483   -1.8884   -6.5528 C.2       4 UNK         0.4946 
     21 O          26.3830   -0.6538   -6.5983 O.2       4 UNK        -0.5353 
     22 CA         25.0384   -2.6009   -6.1833 C.3       4 UNK         0.0277 
     23 CB         25.1926   -3.6309   -5.0486 C.3       4 UNK        -0.1981 
     24 N          24.0429   -1.6070   -5.7979 N.am      4 UNK        -0.4209 
     25 C          22.7172   -1.7378   -5.9132 C.2       3 UNK         0.4942 
     26 O          22.1694   -2.7194   -6.4198 O.2       3 UNK        -0.5208 
     27 CA         21.8664   -0.5745   -5.3587 C.3       3 UNK         0.0250 
     28 CB         20.3797   -0.9508   -5.1775 C.3       3 UNK        -0.1990 
     29 N          22.4089    0.0019   -4.1182 N.am      3 UNK        -0.4232 
     30 C          22.6514   -0.6429   -2.9657 C.2       2 UNK         0.4993 
     31 O          22.4050   -1.8345   -2.7630 O.2       2 UNK        -0.5286 
     32 CA         23.2607    0.1983   -1.8324 C.3       2 UNK         0.0209 
     33 CB         22.1934    0.5542   -0.7843 C.3       2 UNK        -0.1931 
     34 N          24.3667   -0.5022   -1.1767 N.am      2 UNK        -0.4546 
     35 C          25.5501   -0.7656   -1.7513 C.2       1 UNK         0.5154 
     36 O          25.8221   -0.4244   -2.9036 O.2       1 UNK        -0.5181 
     37 C          29.4982   -1.2163   -6.6749 C.2       5 UNK         0.5014 
     38 O          30.3746   -0.6008   -7.2799 O.2       5 UNK        -0.5248 
     39 N          29.2136   -0.9783   -5.3840 N.am      6 UNK        -0.4434 
     40 CA         29.7867    0.1603   -4.6482 C.3       6 UNK         0.0363 
     41 CB         29.4343    0.0870   -3.1569 C.3       6 UNK        -0.1936 
     42 C          29.3256    1.5179   -5.2072 C.2       6 UNK         0.5081 
     43 O          30.0865    2.4839   -5.1506 O.2       6 UNK        -0.5248 
     44 N          28.0964    1.5615   -5.7364 N.am      7 UNK        -0.4718 
     45 CA         27.5341    2.7095   -6.4372 C.3       7 UNK         0.0273 
     46 CB         26.0557    2.8770   -6.0445 C.3       7 UNK        -0.1935 
     47 C          27.6905    2.5203   -7.9505 C.2       7 UNK         0.5018 
     48 O          28.2817    3.3778   -8.6085 O.2       7 UNK        -0.5186 
     49 N          27.1672    1.4017   -8.4751 N.am      8 UNK        -0.4240 
     50 CA         27.1288    1.0798   -9.9034 C.3       8 UNK         0.0235 
     51 CB         26.1990   -0.1250  -10.1350 C.3       8 UNK        -0.2000 
     52 C          28.5375    0.8432  -10.4746 C.2       8 UNK         0.4941 
     53 O          29.0949   -0.2395  -10.2989 O.2       8 UNK        -0.5273 
     54 N          29.0827    1.8789  -11.1272 N.am      9 UNK        -0.4262 
     55 CA         30.4352    1.9685  -11.6922 C.3       9 UNK         0.0264 
     56 CB         30.6822    0.8802  -12.7605 C.3       9 UNK        -0.1955 
     57 C          31.5581    2.0339  -10.6352 C.2       9 UNK         0.5031 
     58 O          32.7109    1.7695  -10.9803 O.2       9 UNK        -0.5390 
     59 N          31.2177    2.4225   -9.3939 N.am      10 UNK        -0.4204 
     60 CA         32.1135    2.7392   -8.2692 C.3       10 UNK         0.0237 
     61 CB         32.6560    4.1733   -8.4397 C.3       10 UNK        -0.1985 
     62 C          33.2381    1.7072   -8.0326 C.2       10 UNK         0.4970 
     63 O          34.4189    2.0604   -8.0685 O.2       10 UNK        -0.4914 
     64 N          32.8412    0.4470   -7.8309 N.am      11 UNK        -0.4285 
     65 CA         33.6920   -0.7419   -7.6618 C.3       11 UNK         0.1007 
     66 C          34.4411   -1.2067   -8.9475 C.2       11 UNK         0.5703 
     67 N          34.2416   -0.5996  -10.1117 N.am      11 UNK        -0.7361 
     68 O          35.1980   -2.1736   -8.8991 O.2       11 UNK        -0.4986 
     69 C69        34.6371   -0.6727   -6.4259 C.3       12 UNK        -0.0947 
     70 S70        33.7829   -0.2973   -4.8540 S.3       12 UNK        -0.2240 
     71 C71        33.9067   -1.8711   -3.9445 C.3       12 UNK         0.0194 
     72 H72        25.3533    0.2561    3.0361 H         1 UNK         0.0906 
     73 H73        25.7615   -1.4608    3.0383 H         1 UNK         0.0906 
     74 H74        27.0003   -0.2600    3.4077 H         1 UNK         0.0906 
     75 H75        25.9633   -2.2840    0.9635 H         1 UNK         0.3140 
     76 H76        27.5503   -0.9560   -1.0406 H         1 UNK         0.1085 
     77 H77        25.8942   -3.4683   -1.5409 H         1 UNK         0.0836 
     78 H78        27.3227   -3.5374   -0.5518 H         1 UNK         0.0836 
     79 H79        29.7682   -2.9718   -1.3112 H         1 UNK         0.0731 
     80 H80        29.4015   -4.6293   -1.7495 H         1 UNK         0.0731 
     81 H81        31.8379   -2.1855   -2.2047 H         1 UNK         0.1312 
     82 H82        33.2177   -3.4567   -6.0598 H         1 UNK         0.1406 
     83 H83        29.5401   -4.9955   -4.4748 H         1 UNK         0.1631 
     84 H84        31.3227   -6.1695   -6.4481 H         1 UNK         0.0717 
     85 H85        31.8474   -4.8443   -7.4581 H         1 UNK         0.0717 
     86 H86        30.5004   -3.0382   -8.3419 H         1 UNK         0.0934 
     87 H87        29.0604   -3.5090   -9.1636 H         1 UNK         0.0934 
     88 H88        28.3045   -1.5898   -8.3090 H         1 UNK         0.0739 
     89 H89        27.2981   -3.6726   -6.7833 H         1 UNK         0.3093 
     90 H90        24.7019   -3.1144   -7.0864 H         1 UNK         0.0818 
     91 H91        24.2904   -4.2342   -4.9471 H         1 UNK         0.0819 
     92 H92        26.0197   -4.3209   -5.2165 H         1 UNK         0.0819 
     93 H93        25.3562   -3.1361   -4.0922 H         1 UNK         0.0819 
     94 H94        24.4336   -0.7518   -5.4224 H         1 UNK         0.3041 
     95 H95        21.9149    0.2149   -6.1103 H         1 UNK         0.0784 
     96 H96        20.2543   -1.7757   -4.4752 H         1 UNK         0.0793 
     97 H97        19.9353   -1.2599   -6.1244 H         1 UNK         0.0793 
     98 H98        19.7982   -0.1057   -4.8094 H         1 UNK         0.0793 
     99 H99        22.6476    0.9828   -4.1715 H         1 UNK         0.3024 
    100 H100       23.6574    1.1265   -2.2509 H         1 UNK         0.1171 
    101 H101       22.6042    1.1872    0.0027 H         1 UNK         0.0786 
    102 H102       21.3663    1.1006   -1.2398 H         1 UNK         0.0786 
    103 H103       21.7752   -0.3376   -0.3153 H         1 UNK         0.0786 
    104 H104       24.2102   -0.8297   -0.2353 H         1 UNK         0.2977 
    105 H105       28.4940   -1.5181   -4.9226 H         1 UNK         0.3127 
    106 H106       30.8723    0.1103   -4.7448 H         1 UNK         0.0770 
    107 H107       28.3577    0.1277   -3.0031 H         1 UNK         0.0814 
    108 H108       29.8713    0.9251   -2.6124 H         1 UNK         0.0814 
    109 H109       29.8118   -0.8205   -2.6951 H         1 UNK         0.0814 
    110 H110       27.5530    0.7035   -5.7726 H         1 UNK         0.2983 
    111 H111       28.0630    3.6230   -6.1557 H         1 UNK         0.0947 
    112 H112       25.6046    3.7177   -6.5733 H         1 UNK         0.0806 
    113 H113       25.9539    3.0733   -4.9771 H         1 UNK         0.0806 
    114 H114       25.4650    1.9896   -6.2750 H         1 UNK         0.0806 
    115 H115       26.7637    0.7150   -7.8423 H         1 UNK         0.3000 
    116 H116       26.6856    1.9327  -10.4223 H         1 UNK         0.0850 
    117 H117       25.1859    0.0856   -9.7919 H         1 UNK         0.0810 
    118 H118       26.5441   -1.0193   -9.6185 H         1 UNK         0.0810 
    119 H119       26.1375   -0.3686  -11.1964 H         1 UNK         0.0810 
    120 H120       28.5442    2.7344  -11.1721 H         1 UNK         0.3040 
    121 H121       30.4699    2.9306  -12.2054 H         1 UNK         0.0766 
    122 H122       29.8755    0.8499  -13.4928 H         1 UNK         0.0812 
    123 H123       30.7729   -0.1117  -12.3170 H         1 UNK         0.0812 
    124 H124       31.6063    1.0723  -13.3070 H         1 UNK         0.0812 
    125 H125       30.2340    2.5982   -9.2215 H         1 UNK         0.3205 
    126 H126       31.4950    2.7264   -7.3718 H         1 UNK         0.0754 
    127 H127       33.2757    4.2650   -9.3327 H         1 UNK         0.0769 
    128 H128       33.2666    4.4663   -7.5846 H         1 UNK         0.0769 
    129 H129       31.8443    4.8967   -8.5190 H         1 UNK         0.0769 
    130 H130       31.8431    0.2406   -7.7897 H         1 UNK         0.2981 
    131 H131       32.9819   -1.5456   -7.4695 H         1 UNK         0.0541 
    132 H132       33.6444    0.2175  -10.1903 H         1 UNK         0.3459 
    133 H133       34.7309   -0.9352  -10.9254 H         1 UNK         0.3459 
    134 H134       35.4026    0.0893   -6.5777 H         1 UNK         0.0612 
    135 H135       35.1811   -1.6113   -6.3150 H         1 UNK         0.0612 
    136 H136       34.0543   -1.6382   -2.8889 H         1 UNK         0.0624 
    137 H137       34.7939   -2.4275   -4.2485 H         1 UNK         0.0624 
@<TRIPOS>BOND
     1    1    2 1    
     2    1   72 1    
     3    1   73 1    
     4    1   74 1    
     5    2    3 2    
     6    2    4 am   BACKBONE|DICT|INTERRES
     7    4    5 1    
     8    4   75 1    
     9    5    6 1    
    10    5   35 1    
    11    5   76 1    
    12    6    7 1    
    13    6   77 1    
    14    6   78 1    
    15    7    8 1    
    16    8    9 1    
    17    8   79 1    
    18    8   80 1    
    19    9   10 ar   
    20    9   14 ar   
    21   10   11 ar   
    22   10   81 1    
    23   11   12 ar   
    24   11   71 1    
    25   12   13 ar   
    26   12   82 1    
    27   13   14 ar   
    28   13   15 1    
    29   14   83 1    
    30   15   16 1    
    31   15   84 1    
    32   15   85 1    
    33   16   17 1    
    34   17   18 1    
    35   17   86 1    
    36   17   87 1    
    37   18   19 1    
    38   18   37 1    
    39   18   88 1    
    40   19   20 am   BACKBONE|DICT|INTERRES
    41   19   89 1    
    42   20   21 2    
    43   20   22 1    
    44   22   23 1    
    45   22   24 1    
    46   22   90 1    
    47   23   91 1    
    48   23   92 1    
    49   23   93 1    
    50   24   25 am   BACKBONE|DICT|INTERRES
    51   24   94 1    
    52   25   26 2    
    53   25   27 1    
    54   27   28 1    
    55   27   29 1    
    56   27   95 1    
    57   28   96 1    
    58   28   97 1    
    59   28   98 1    
    60   29   30 am   BACKBONE|DICT|INTERRES
    61   29   99 1    
    62   30   31 2    
    63   30   32 1    
    64   32   33 1    
    65   32   34 1    
    66   32  100 1    
    67   33  101 1    
    68   33  102 1    
    69   33  103 1    
    70   34   35 am   BACKBONE|DICT|INTERRES
    71   34  104 1    
    72   35   36 2    
    73   37   38 2    
    74   37   39 am   BACKBONE|DICT|INTERRES
    75   39   40 1    
    76   39  105 1    
    77   40   41 1    
    78   40   42 1    
    79   40  106 1    
    80   41  107 1    
    81   41  108 1    
    82   41  109 1    
    83   42   43 2    
    84   42   44 am   BACKBONE|DICT|INTERRES
    85   44   45 1    
    86   44  110 1    
    87   45   46 1    
    88   45   47 1    
    89   45  111 1    
    90   46  112 1    
    91   46  113 1    
    92   46  114 1    
    93   47   48 2    
    94   47   49 am   BACKBONE|DICT|INTERRES
    95   49   50 1    
    96   49  115 1    
    97   50   51 1    
    98   50   52 1    
    99   50  116 1    
   100   51  117 1    
   101   51  118 1    
   102   51  119 1    
   103   52   53 2    
   104   52   54 am   BACKBONE|DICT|INTERRES
   105   54   55 1    
   106   54  120 1    
   107   55   56 1    
   108   55   57 1    
   109   55  121 1    
   110   56  122 1    
   111   56  123 1    
   112   56  124 1    
   113   57   58 2    
   114   57   59 am   BACKBONE|DICT|INTERRES
   115   59   60 1    
   116   59  125 1    
   117   60   61 1    
   118   60   62 1    
   119   60  126 1    
   120   61  127 1    
   121   61  128 1    
   122   61  129 1    
   123   62   63 2    
   124   62   64 am   BACKBONE|DICT|INTERRES
   125   64   65 1    
   126   64  130 1    
   127   65   66 1    
   128   65   69 1    
   129   65  131 1    
   130   66   67 am   BACKBONE|DICT|INTERRES
   131   66   68 2    
   132   67  132 1    
   133   67  133 1    
   134   69   70 1    
   135   69  134 1    
   136   69  135 1    
   137   70   71 1    
   138   71  136 1    
   139   71  137 1    
@<TRIPOS>SUBSTRUCTURE
     1 UNK         1 GROUP             0       ****    0 ROOT    
