@<TRIPOS>MOLECULE
3R137
137   139    1
SMALL
USER_CHARGES


@<TRIPOS>ATOM
      1 CA         22.9051   -3.2408   -5.8555 C.3       0 UNK        -0.2020 
      2 C          23.7230   -4.2421   -5.0539 C.2       0 UNK         0.4855 
      3 O          23.1544   -5.1291   -4.4157 O.2       0 UNK        -0.5197 
      4 N          25.0534   -4.1030   -5.0685 N.am      1 UNK        -0.4892 
      5 CA         26.0029   -4.9236   -4.3150 C.3       1 UNK         0.0835 
      6 C6         27.4559   -4.7784   -4.8441 C.3       12 UNK        -0.0855 
      7 S7         28.0271   -3.0569   -5.0798 S.3       12 UNK        -0.2931 
      8 C8         29.3917   -2.9793   -3.8800 C.3       12 UNK         0.0378 
      9 C9         29.9094   -1.5573   -3.7509 C.ar      12 UNK        -0.0802 
     10 C10        30.6967   -1.0045   -4.7648 C.ar      12 UNK        -0.0944 
     11 C11        31.1342    0.3194   -4.6778 C.ar      12 UNK        -0.0787 
     12 C12        30.7844    1.0886   -3.5651 C.ar      12 UNK        -0.0862 
     13 C13        30.0091    0.5421   -2.5375 C.ar      12 UNK        -0.0733 
     14 C14        29.5844   -0.7869   -2.6303 C.ar      12 UNK        -0.0832 
     15 C15        29.6155    1.4005   -1.3408 C.3       12 UNK         0.0240 
     16 S16        27.8122    1.6541   -1.2076 S.3       12 UNK        -0.2522 
     17 C17        27.3603    2.1537   -2.9041 C.3       12 UNK        -0.0967 
     18 CA         26.6135    1.0091   -3.6330 C.3       5 UNK         0.0660 
     19 N          25.2741    0.8025   -3.0765 N.am      5 UNK        -0.4015 
     20 C          24.4988   -0.2566   -3.3314 C.2       4 UNK         0.4946 
     21 O          24.8217   -1.1941   -4.0626 O.2       4 UNK        -0.5353 
     22 CA         23.1130   -0.2603   -2.6819 C.3       4 UNK         0.0277 
     23 CB         22.0831    0.4048   -3.6170 C.3       4 UNK        -0.1981 
     24 N          22.7386   -1.6443   -2.4012 N.am      4 UNK        -0.4209 
     25 C          21.7295   -2.0338   -1.6129 C.2       3 UNK         0.4942 
     26 O          20.9893   -1.2522   -1.0140 O.2       3 UNK        -0.5208 
     27 CA         21.4905   -3.5452   -1.4625 C.3       3 UNK         0.0250 
     28 CB         20.4929   -4.0424   -2.5215 C.3       3 UNK        -0.1990 
     29 N          22.7204   -4.3399   -1.5311 N.am      3 UNK        -0.4232 
     30 C          23.5800   -4.4732   -0.5081 C.2       2 UNK         0.4993 
     31 O          23.4391   -3.9073    0.5767 O.2       2 UNK        -0.5286 
     32 CA         24.7862   -5.4105   -0.7020 C.3       2 UNK         0.0209 
     33 CB         24.4908   -6.7951   -0.1017 C.3       2 UNK        -0.1931 
     34 N          25.1639   -5.5682   -2.1071 N.am      2 UNK        -0.4546 
     35 C          25.8569   -4.6565   -2.8009 C.2       1 UNK         0.5154 
     36 O          26.3204   -3.6336   -2.2947 O.2       1 UNK        -0.5181 
     37 C          26.5567    1.2695   -5.1489 C.2       5 UNK         0.5014 
     38 O          25.6739    1.9971   -5.6127 O.2       5 UNK        -0.5248 
     39 N          27.5132    0.6889   -5.8840 N.am      6 UNK        -0.4434 
     40 CA         27.6671    0.8709   -7.3261 C.3       6 UNK         0.0363 
     41 CB         28.5864   -0.2292   -7.8811 C.3       6 UNK        -0.1936 
     42 C          28.2371    2.2578   -7.6625 C.2       6 UNK         0.5081 
     43 O          29.0818    2.7745   -6.9272 O.2       6 UNK        -0.5248 
     44 N          27.7966    2.8147   -8.7959 N.am      7 UNK        -0.4718 
     45 CA         28.3533    4.0290   -9.3884 C.3       7 UNK         0.0273 
     46 CB         27.2721    4.7194  -10.2396 C.3       7 UNK        -0.1935 
     47 C          29.5824    3.6390  -10.2223 C.2       7 UNK         0.5018 
     48 O          29.4220    3.2100  -11.3670 O.2       7 UNK        -0.5186 
     49 N          30.7708    3.7420   -9.6098 N.am      8 UNK        -0.4240 
     50 CA         32.0627    3.2626  -10.1144 C.3       8 UNK         0.0235 
     51 CB         32.5024    4.0272  -11.3848 C.3       8 UNK        -0.2000 
     52 C          32.0409    1.7301  -10.2583 C.2       8 UNK         0.4941 
     53 O          31.9308    1.0504   -9.2365 O.2       8 UNK        -0.5273 
     54 N          32.1429    1.2132  -11.4929 N.am      9 UNK        -0.4262 
     55 CA         32.1205   -0.2085  -11.8611 C.3       9 UNK         0.0264 
     56 CB         30.7052   -0.7978  -11.6623 C.3       9 UNK        -0.1955 
     57 C          33.2300   -0.9890  -11.1340 C.2       9 UNK         0.5031 
     58 O          34.3958   -0.8563  -11.5095 O.2       9 UNK        -0.5390 
     59 N          32.8668   -1.7278  -10.0760 N.am      10 UNK        -0.4204 
     60 CA         33.7836   -2.4157   -9.1612 C.3       10 UNK         0.0237 
     61 CB         32.9639   -3.2034   -8.1258 C.3       10 UNK        -0.1985 
     62 C          34.7778   -1.4750   -8.4519 C.2       10 UNK         0.4970 
     63 O          35.8892   -1.9061   -8.1424 O.2       10 UNK        -0.4914 
     64 N          34.3739   -0.2174   -8.2312 N.am      11 UNK        -0.4285 
     65 CA         35.2265    0.8590   -7.7058 C.3       11 UNK         0.1007 
     66 C          36.0106    1.6275   -8.8112 C.2       11 UNK         0.5703 
     67 N          35.8975    1.2848  -10.0902 N.am      11 UNK        -0.7361 
     68 O          36.7549    2.5545   -8.5009 O.2       11 UNK        -0.4986 
     69 C69        34.4248    1.8286   -6.7980 C.3       12 UNK        -0.0947 
     70 S70        33.7244    0.9991   -5.3334 S.3       12 UNK        -0.2240 
     71 C71        31.9681    0.9287   -5.7917 C.3       12 UNK         0.0194 
     72 H72        22.2978   -3.7588   -6.5970 H         1 UNK         0.0906 
     73 H73        22.2402   -2.6830   -5.1975 H         1 UNK         0.0906 
     74 H74        23.5406   -2.5237   -6.3753 H         1 UNK         0.0906 
     75 H75        25.4625   -3.2881   -5.5073 H         1 UNK         0.3140 
     76 H76        25.7240   -5.9661   -4.4855 H         1 UNK         0.1085 
     77 H77        27.5252   -5.2674   -5.8170 H         1 UNK         0.0836 
     78 H78        28.1518   -5.3226   -4.2028 H         1 UNK         0.0836 
     79 H79        30.1985   -3.6404   -4.2002 H         1 UNK         0.0731 
     80 H80        29.0477   -3.3495   -2.9128 H         1 UNK         0.0731 
     81 H81        30.9508   -1.6017   -5.6297 H         1 UNK         0.1312 
     82 H82        31.1166    2.1162   -3.5052 H         1 UNK         0.1406 
     83 H83        28.9700   -1.2079   -1.8452 H         1 UNK         0.1631 
     84 H84        30.1004    2.3767   -1.3898 H         1 UNK         0.0717 
     85 H85        29.9747    0.9268   -0.4262 H         1 UNK         0.0717 
     86 H86        26.7404    3.0509   -2.8556 H         1 UNK         0.0934 
     87 H87        28.2603    2.4519   -3.4452 H         1 UNK         0.0934 
     88 H88        27.1625    0.0773   -3.4867 H         1 UNK         0.0739 
     89 H89        24.9200    1.5425   -2.4892 H         1 UNK         0.3093 
     90 H90        23.1618    0.2870   -1.7379 H         1 UNK         0.0818 
     91 H91        21.9846   -0.1403   -4.5566 H         1 UNK         0.0819 
     92 H92        21.0965    0.4602   -3.1573 H         1 UNK         0.0819 
     93 H93        22.3794    1.4254   -3.8629 H         1 UNK         0.0819 
     94 H94        23.3421   -2.3329   -2.8334 H         1 UNK         0.3041 
     95 H95        21.0349   -3.7053   -0.4825 H         1 UNK         0.0784 
     96 H96        19.5488   -3.5002   -2.4512 H         1 UNK         0.0793 
     97 H97        20.8705   -3.9049   -3.5344 H         1 UNK         0.0793 
     98 H98        20.2683   -5.1008   -2.3890 H         1 UNK         0.0793 
     99 H99        22.9103   -4.8174   -2.4070 H         1 UNK         0.3024 
    100 H100       25.6275   -4.9748   -0.1571 H         1 UNK         0.1171 
    101 H101       23.6570   -7.2857   -0.6056 H         1 UNK         0.0786 
    102 H102       25.3589   -7.4509   -0.1705 H         1 UNK         0.0786 
    103 H103       24.2309   -6.7146    0.9549 H         1 UNK         0.0786 
    104 H104       24.7789   -6.3648   -2.5959 H         1 UNK         0.2977 
    105 H105       28.2234    0.1382   -5.4209 H         1 UNK         0.3127 
    106 H106       26.6836    0.7671   -7.7899 H         1 UNK         0.0770 
    107 H107       29.5955   -0.1548   -7.4755 H         1 UNK         0.0814 
    108 H108       28.6687   -0.1536   -8.9657 H         1 UNK         0.0814 
    109 H109       28.2033   -1.2239   -7.6531 H         1 UNK         0.0814 
    110 H110       27.1311    2.3077   -9.3623 H         1 UNK         0.2983 
    111 H111       28.6578    4.7242   -8.6023 H         1 UNK         0.0947 
    112 H112       27.6681    5.6175  -10.7155 H         1 UNK         0.0806 
    113 H113       26.4231    5.0248   -9.6277 H         1 UNK         0.0806 
    114 H114       26.8965    4.0700  -11.0315 H         1 UNK         0.0806 
    115 H115       30.7681    4.0290   -8.6400 H         1 UNK         0.3000 
    116 H116       32.7965    3.4812   -9.3376 H         1 UNK         0.0850 
    117 H117       33.4951    3.7104  -11.7078 H         1 UNK         0.0810 
    118 H118       32.5596    5.0984  -11.1917 H         1 UNK         0.0810 
    119 H119       31.8194    3.8837  -12.2224 H         1 UNK         0.0810 
    120 H120       32.2452    1.8605  -12.2616 H         1 UNK         0.3040 
    121 H121       32.3536   -0.2621  -12.9257 H         1 UNK         0.0766 
    122 H122       30.6730   -1.8512  -11.9444 H         1 UNK         0.0812 
    123 H123       29.9790   -0.2780  -12.2875 H         1 UNK         0.0812 
    124 H124       30.3592   -0.7174  -10.6320 H         1 UNK         0.0812 
    125 H125       31.8892   -1.7322   -9.8243 H         1 UNK         0.3205 
    126 H126       34.3680   -3.1239   -9.7522 H         1 UNK         0.0754 
    127 H127       32.3380   -2.5450   -7.5220 H         1 UNK         0.0769 
    128 H128       33.6175   -3.7479   -7.4427 H         1 UNK         0.0769 
    129 H129       32.3162   -3.9376   -8.6055 H         1 UNK         0.0769 
    130 H130       33.4489    0.0685   -8.5399 H         1 UNK         0.2981 
    131 H131       35.9975    0.4081   -7.0786 H         1 UNK         0.0541 
    132 H132       35.3308    0.4975  -10.3851 H         1 UNK         0.3459 
    133 H133       36.4282    1.7968  -10.7763 H         1 UNK         0.3459 
    134 H134       33.6305    2.3183   -7.3625 H         1 UNK         0.0612 
    135 H135       35.0686    2.6283   -6.4277 H         1 UNK         0.0612 
    136 H136       31.8628    0.3454   -6.7064 H         1 UNK         0.0624 
    137 H137       31.6047    1.9324   -6.0172 H         1 UNK         0.0624 
@<TRIPOS>BOND
     1    1    2 1    
     2    1   72 1    
     3    1   73 1    
     4    1   74 1    
     5    2    3 2    
     6    2    4 am   BACKBONE|DICT|INTERRES
     7    4    5 1    
     8    4   75 1    
     9    5    6 1    
    10    5   35 1    
    11    5   76 1    
    12    6    7 1    
    13    6   77 1    
    14    6   78 1    
    15    7    8 1    
    16    8    9 1    
    17    8   79 1    
    18    8   80 1    
    19    9   10 ar   
    20    9   14 ar   
    21   10   11 ar   
    22   10   81 1    
    23   11   12 ar   
    24   11   71 1    
    25   12   13 ar   
    26   12   82 1    
    27   13   14 ar   
    28   13   15 1    
    29   14   83 1    
    30   15   16 1    
    31   15   84 1    
    32   15   85 1    
    33   16   17 1    
    34   17   18 1    
    35   17   86 1    
    36   17   87 1    
    37   18   19 1    
    38   18   37 1    
    39   18   88 1    
    40   19   20 am   BACKBONE|DICT|INTERRES
    41   19   89 1    
    42   20   21 2    
    43   20   22 1    
    44   22   23 1    
    45   22   24 1    
    46   22   90 1    
    47   23   91 1    
    48   23   92 1    
    49   23   93 1    
    50   24   25 am   BACKBONE|DICT|INTERRES
    51   24   94 1    
    52   25   26 2    
    53   25   27 1    
    54   27   28 1    
    55   27   29 1    
    56   27   95 1    
    57   28   96 1    
    58   28   97 1    
    59   28   98 1    
    60   29   30 am   BACKBONE|DICT|INTERRES
    61   29   99 1    
    62   30   31 2    
    63   30   32 1    
    64   32   33 1    
    65   32   34 1    
    66   32  100 1    
    67   33  101 1    
    68   33  102 1    
    69   33  103 1    
    70   34   35 am   BACKBONE|DICT|INTERRES
    71   34  104 1    
    72   35   36 2    
    73   37   38 2    
    74   37   39 am   BACKBONE|DICT|INTERRES
    75   39   40 1    
    76   39  105 1    
    77   40   41 1    
    78   40   42 1    
    79   40  106 1    
    80   41  107 1    
    81   41  108 1    
    82   41  109 1    
    83   42   43 2    
    84   42   44 am   BACKBONE|DICT|INTERRES
    85   44   45 1    
    86   44  110 1    
    87   45   46 1    
    88   45   47 1    
    89   45  111 1    
    90   46  112 1    
    91   46  113 1    
    92   46  114 1    
    93   47   48 2    
    94   47   49 am   BACKBONE|DICT|INTERRES
    95   49   50 1    
    96   49  115 1    
    97   50   51 1    
    98   50   52 1    
    99   50  116 1    
   100   51  117 1    
   101   51  118 1    
   102   51  119 1    
   103   52   53 2    
   104   52   54 am   BACKBONE|DICT|INTERRES
   105   54   55 1    
   106   54  120 1    
   107   55   56 1    
   108   55   57 1    
   109   55  121 1    
   110   56  122 1    
   111   56  123 1    
   112   56  124 1    
   113   57   58 2    
   114   57   59 am   BACKBONE|DICT|INTERRES
   115   59   60 1    
   116   59  125 1    
   117   60   61 1    
   118   60   62 1    
   119   60  126 1    
   120   61  127 1    
   121   61  128 1    
   122   61  129 1    
   123   62   63 2    
   124   62   64 am   BACKBONE|DICT|INTERRES
   125   64   65 1    
   126   64  130 1    
   127   65   66 1    
   128   65   69 1    
   129   65  131 1    
   130   66   67 am   BACKBONE|DICT|INTERRES
   131   66   68 2    
   132   67  132 1    
   133   67  133 1    
   134   69   70 1    
   135   69  134 1    
   136   69  135 1    
   137   70   71 1    
   138   71  136 1    
   139   71  137 1    
@<TRIPOS>SUBSTRUCTURE
     1 UNK         1 GROUP             0       ****    0 ROOT    
