@<TRIPOS>MOLECULE
3R137
137   139    1
SMALL
USER_CHARGES


@<TRIPOS>ATOM
      1 CA         28.5579    0.1616   -1.0398 C.3       0 UNK        -0.2020 
      2 C          29.1623   -0.4193    0.2370 C.2       0 UNK         0.4855 
      3 O          29.6350    0.3450    1.0756 O.2       0 UNK        -0.5197 
      4 N          29.1882   -1.7455    0.4371 N.am      1 UNK        -0.4892 
      5 CA         28.5997   -2.7931   -0.4064 C.3       1 UNK         0.0835 
      6 C6         29.0900   -4.1927    0.0365 C.3       12 UNK        -0.0855 
      7 S7         28.9975   -5.4407   -1.2915 S.3       12 UNK        -0.2931 
      8 C8         30.6254   -5.2708   -2.0973 C.3       12 UNK         0.0378 
      9 C9         30.5756   -4.2700   -3.2426 C.ar      12 UNK        -0.0802 
     10 C10        31.0154   -2.9531   -3.0678 C.ar      12 UNK        -0.0944 
     11 C11        30.9439   -2.0352   -4.1213 C.ar      12 UNK        -0.0787 
     12 C12        30.4384   -2.4484   -5.3571 C.ar      12 UNK        -0.0862 
     13 C13        30.0101   -3.7652   -5.5493 C.ar      12 UNK        -0.0733 
     14 C14        30.0856   -4.6716   -4.4886 C.ar      12 UNK        -0.0832 
     15 C15        29.4816   -4.2072   -6.9082 C.3       12 UNK         0.0240 
     16 S16        27.7864   -4.8785   -6.8553 S.3       12 UNK        -0.2522 
     17 C17        26.8327   -3.5561   -6.0384 C.3       12 UNK        -0.0967 
     18 CA         26.3555   -2.4451   -7.0098 C.3       5 UNK         0.0660 
     19 N          25.0442   -1.9158   -6.6338 N.am      5 UNK        -0.4015 
     20 C          24.2617   -1.1726   -7.4290 C.2       4 UNK         0.4946 
     21 O          24.5233   -0.9116   -8.6033 O.2       4 UNK        -0.5353 
     22 CA         22.9806   -0.6008   -6.7967 C.3       4 UNK         0.0277 
     23 CB         21.8136   -1.5886   -6.9544 C.3       4 UNK        -0.1981 
     24 N          23.1450   -0.2567   -5.3805 N.am      4 UNK        -0.4209 
     25 C          23.9363    0.7287   -4.9330 C.2       3 UNK         0.4942 
     26 O          24.5871    1.4708   -5.6669 O.2       3 UNK        -0.5208 
     27 CA         24.0620    0.8822   -3.4087 C.3       3 UNK         0.0250 
     28 CB         22.8994    1.7195   -2.8523 C.3       3 UNK        -0.1990 
     29 N          24.1482   -0.3905   -2.6818 N.am      3 UNK        -0.4232 
     30 C          25.1042   -1.3112   -2.8643 C.2       2 UNK         0.4993 
     31 O          25.9689   -1.2425   -3.7433 O.2       2 UNK        -0.5286 
     32 CA         25.0887   -2.5242   -1.9276 C.3       2 UNK         0.0209 
     33 CB         24.4058   -3.7228   -2.6048 C.3       2 UNK        -0.1931 
     34 N          26.4767   -2.8649   -1.6239 N.am      2 UNK        -0.4546 
     35 C          27.0607   -2.6861   -0.4347 C.2       1 UNK         0.5154 
     36 O          26.4482   -2.4111    0.6003 O.2       1 UNK        -0.5181 
     37 C          27.3764   -1.2989   -7.1093 C.2       5 UNK         0.5014 
     38 O          28.0820   -1.1959   -8.1131 O.2       5 UNK        -0.5248 
     39 N          27.4097   -0.4365   -6.0822 N.am      6 UNK        -0.4434 
     40 CA         28.2720    0.7429   -6.0102 C.3       6 UNK         0.0363 
     41 CB         28.1154    1.4239   -4.6443 C.3       6 UNK        -0.1936 
     42 C          28.0351    1.7395   -7.1515 C.2       6 UNK         0.5081 
     43 O          29.0063    2.1940   -7.7529 O.2       6 UNK        -0.5248 
     44 N          26.7629    2.0186   -7.4648 N.am      7 UNK        -0.4718 
     45 CA         26.3531    2.8762   -8.5804 C.3       7 UNK         0.0273 
     46 CB         24.8305    3.0802   -8.5322 C.3       7 UNK        -0.1935 
     47 C          26.7782    2.3423   -9.9602 C.2       7 UNK         0.5018 
     48 O          27.0478    3.1443  -10.8553 O.2       7 UNK        -0.5186 
     49 N          26.8299    1.0118  -10.1078 N.am      8 UNK        -0.4240 
     50 CA         27.2697    0.3369  -11.3257 C.3       8 UNK         0.0235 
     51 CB         26.6453   -1.0676  -11.3913 C.3       8 UNK        -0.2000 
     52 C          28.8013    0.2642  -11.4241 C.2       8 UNK         0.4941 
     53 O          29.3569    0.6503  -12.4535 O.2       8 UNK        -0.5273 
     54 N          29.4516   -0.2638  -10.3782 N.am      9 UNK        -0.4262 
     55 CA         30.8751   -0.6069  -10.3961 C.3       9 UNK         0.0264 
     56 CB         31.1267   -1.7779   -9.4344 C.3       9 UNK        -0.1955 
     57 C          31.8138    0.5585  -10.0541 C.2       9 UNK         0.5031 
     58 O          32.9321    0.5728  -10.5707 O.2       9 UNK        -0.5390 
     59 N          31.3770    1.4798   -9.1785 N.am      10 UNK        -0.4204 
     60 CA         32.1603    2.5802   -8.5955 C.3       10 UNK         0.0237 
     61 CB         32.4371    3.6687   -9.6546 C.3       10 UNK        -0.1985 
     62 C          33.4380    2.0771   -7.8903 C.2       10 UNK         0.4970 
     63 O          34.5429    2.4908   -8.2492 O.2       10 UNK        -0.4914 
     64 N          33.2583    1.1491   -6.9374 N.am      11 UNK        -0.4285 
     65 CA         34.3433    0.4601   -6.2191 C.3       11 UNK         0.1007 
     66 C          35.2785    1.3998   -5.3994 C.2       11 UNK         0.5703 
     67 N          36.5047    0.9694   -5.1322 N.am      11 UNK        -0.7361 
     68 O          34.8980    2.4924   -4.9809 O.2       11 UNK        -0.4986 
     69 C69        33.8162   -0.7659   -5.4121 C.3       12 UNK        -0.0947 
     70 S70        33.1832   -0.4235   -3.7284 S.3       12 UNK        -0.2240 
     71 C71        31.3838   -0.5909   -3.9176 C.3       12 UNK         0.0194 
     72 H72        29.0029    1.1321   -1.2587 H         1 UNK         0.0906 
     73 H73        28.7281   -0.4744   -1.9054 H         1 UNK         0.0906 
     74 H74        27.4844    0.3065   -0.9202 H         1 UNK         0.0906 
     75 H75        29.5753   -2.0755    1.3097 H         1 UNK         0.3140 
     76 H76        28.9616   -2.6228   -1.4185 H         1 UNK         0.1085 
     77 H77        28.5233   -4.5517    0.8982 H         1 UNK         0.0836 
     78 H78        30.1258   -4.1422    0.3760 H         1 UNK         0.0836 
     79 H79        31.3901   -4.9932   -1.3704 H         1 UNK         0.0731 
     80 H80        30.9240   -6.2460   -2.4851 H         1 UNK         0.0731 
     81 H81        31.4036   -2.6365   -2.1090 H         1 UNK         0.1312 
     82 H82        30.3772   -1.7427   -6.1719 H         1 UNK         0.1406 
     83 H83        29.7485   -5.6898   -4.6308 H         1 UNK         0.1631 
     84 H84        30.1469   -4.9716   -7.3115 H         1 UNK         0.0717 
     85 H85        29.5035   -3.3843   -7.6205 H         1 UNK         0.0717 
     86 H86        25.9659   -4.0614   -5.6120 H         1 UNK         0.0934 
     87 H87        27.3771   -3.1594   -5.1792 H         1 UNK         0.0934 
     88 H88        26.2470   -2.8761   -8.0079 H         1 UNK         0.0739 
     89 H89        24.7805   -2.0207   -5.6651 H         1 UNK         0.3093 
     90 H90        22.7294    0.3144   -7.3375 H         1 UNK         0.0818 
     91 H91        20.8801   -1.1620   -6.5867 H         1 UNK         0.0819 
     92 H92        21.6591   -1.8436   -8.0039 H         1 UNK         0.0819 
     93 H93        21.9934   -2.5201   -6.4161 H         1 UNK         0.0819 
     94 H94        22.6376   -0.8120   -4.7069 H         1 UNK         0.3041 
     95 H95        24.9894    1.4256   -3.2163 H         1 UNK         0.0784 
     96 H96        22.8276    2.6783   -3.3682 H         1 UNK         0.0793 
     97 H97        21.9406    1.2133   -2.9708 H         1 UNK         0.0793 
     98 H98        23.0370    1.9354   -1.7926 H         1 UNK         0.0793 
     99 H99        23.4665   -0.5342   -1.9502 H         1 UNK         0.3024 
    100 H100       24.5395   -2.2699   -1.0179 H         1 UNK         0.1171 
    101 H101       23.3721   -3.4917   -2.8656 H         1 UNK         0.0786 
    102 H102       24.3860   -4.5879   -1.9417 H         1 UNK         0.0786 
    103 H103       24.9174   -4.0199   -3.5196 H         1 UNK         0.0786 
    104 H104       27.0567   -3.0496   -2.4311 H         1 UNK         0.2977 
    105 H105       26.8141   -0.6177   -5.2759 H         1 UNK         0.3127 
    106 H106       29.2996    0.3944   -6.1049 H         1 UNK         0.0770 
    107 H107       27.1018    1.7946   -4.4909 H         1 UNK         0.0814 
    108 H108       28.7935    2.2730   -4.5496 H         1 UNK         0.0814 
    109 H109       28.3437    0.7322   -3.8368 H         1 UNK         0.0814 
    110 H110       26.0192    1.6442   -6.8785 H         1 UNK         0.2983 
    111 H111       26.8351    3.8468   -8.4450 H         1 UNK         0.0947 
    112 H112       24.4948    3.7259   -9.3448 H         1 UNK         0.0806 
    113 H113       24.5230    3.5493   -7.5974 H         1 UNK         0.0806 
    114 H114       24.2960    2.1335   -8.6224 H         1 UNK         0.0806 
    115 H115       26.5897    0.4262   -9.3184 H         1 UNK         0.3000 
    116 H116       26.9070    0.8997  -12.1890 H         1 UNK         0.0850 
    117 H117       26.9541   -1.5905  -12.2974 H         1 UNK         0.0810 
    118 H118       25.5564   -1.0141  -11.4023 H         1 UNK         0.0810 
    119 H119       26.9362   -1.6859  -10.5415 H         1 UNK         0.0810 
    120 H120       28.9166   -0.5630   -9.5623 H         1 UNK         0.3040 
    121 H121       31.1360   -0.9488  -11.4005 H         1 UNK         0.0766 
    122 H122       32.1731   -2.0859   -9.4555 H         1 UNK         0.0812 
    123 H123       30.5275   -2.6470   -9.7056 H         1 UNK         0.0812 
    124 H124       30.8875   -1.5069   -8.4071 H         1 UNK         0.0812 
    125 H125       30.4233    1.4154   -8.8304 H         1 UNK         0.3205 
    126 H126       31.5409    3.0318   -7.8194 H         1 UNK         0.0754 
    127 H127       32.9455    4.5252   -9.2102 H         1 UNK         0.0769 
    128 H128       31.5094    4.0349  -10.0947 H         1 UNK         0.0769 
    129 H129       33.0682    3.2992  -10.4636 H         1 UNK         0.0769 
    130 H130       32.3192    0.8850   -6.6870 H         1 UNK         0.2981 
    131 H131       34.9706    0.0493   -7.0131 H         1 UNK         0.0541 
    132 H132       36.8243    0.0695   -5.4549 H         1 UNK         0.3459 
    133 H133       37.1219    1.5557   -4.5925 H         1 UNK         0.3459 
    134 H134       34.6331   -1.4783   -5.2880 H         1 UNK         0.0612 
    135 H135       33.0629   -1.3044   -5.9885 H         1 UNK         0.0612 
    136 H136       30.9049   -0.1956   -3.0215 H         1 UNK         0.0624 
    137 H137       31.0611    0.0441   -4.7410 H         1 UNK         0.0624 
@<TRIPOS>BOND
     1    1    2 1    
     2    1   72 1    
     3    1   73 1    
     4    1   74 1    
     5    2    3 2    
     6    2    4 am   BACKBONE|DICT|INTERRES
     7    4    5 1    
     8    4   75 1    
     9    5    6 1    
    10    5   35 1    
    11    5   76 1    
    12    6    7 1    
    13    6   77 1    
    14    6   78 1    
    15    7    8 1    
    16    8    9 1    
    17    8   79 1    
    18    8   80 1    
    19    9   10 ar   
    20    9   14 ar   
    21   10   11 ar   
    22   10   81 1    
    23   11   12 ar   
    24   11   71 1    
    25   12   13 ar   
    26   12   82 1    
    27   13   14 ar   
    28   13   15 1    
    29   14   83 1    
    30   15   16 1    
    31   15   84 1    
    32   15   85 1    
    33   16   17 1    
    34   17   18 1    
    35   17   86 1    
    36   17   87 1    
    37   18   19 1    
    38   18   37 1    
    39   18   88 1    
    40   19   20 am   BACKBONE|DICT|INTERRES
    41   19   89 1    
    42   20   21 2    
    43   20   22 1    
    44   22   23 1    
    45   22   24 1    
    46   22   90 1    
    47   23   91 1    
    48   23   92 1    
    49   23   93 1    
    50   24   25 am   BACKBONE|DICT|INTERRES
    51   24   94 1    
    52   25   26 2    
    53   25   27 1    
    54   27   28 1    
    55   27   29 1    
    56   27   95 1    
    57   28   96 1    
    58   28   97 1    
    59   28   98 1    
    60   29   30 am   BACKBONE|DICT|INTERRES
    61   29   99 1    
    62   30   31 2    
    63   30   32 1    
    64   32   33 1    
    65   32   34 1    
    66   32  100 1    
    67   33  101 1    
    68   33  102 1    
    69   33  103 1    
    70   34   35 am   BACKBONE|DICT|INTERRES
    71   34  104 1    
    72   35   36 2    
    73   37   38 2    
    74   37   39 am   BACKBONE|DICT|INTERRES
    75   39   40 1    
    76   39  105 1    
    77   40   41 1    
    78   40   42 1    
    79   40  106 1    
    80   41  107 1    
    81   41  108 1    
    82   41  109 1    
    83   42   43 2    
    84   42   44 am   BACKBONE|DICT|INTERRES
    85   44   45 1    
    86   44  110 1    
    87   45   46 1    
    88   45   47 1    
    89   45  111 1    
    90   46  112 1    
    91   46  113 1    
    92   46  114 1    
    93   47   48 2    
    94   47   49 am   BACKBONE|DICT|INTERRES
    95   49   50 1    
    96   49  115 1    
    97   50   51 1    
    98   50   52 1    
    99   50  116 1    
   100   51  117 1    
   101   51  118 1    
   102   51  119 1    
   103   52   53 2    
   104   52   54 am   BACKBONE|DICT|INTERRES
   105   54   55 1    
   106   54  120 1    
   107   55   56 1    
   108   55   57 1    
   109   55  121 1    
   110   56  122 1    
   111   56  123 1    
   112   56  124 1    
   113   57   58 2    
   114   57   59 am   BACKBONE|DICT|INTERRES
   115   59   60 1    
   116   59  125 1    
   117   60   61 1    
   118   60   62 1    
   119   60  126 1    
   120   61  127 1    
   121   61  128 1    
   122   61  129 1    
   123   62   63 2    
   124   62   64 am   BACKBONE|DICT|INTERRES
   125   64   65 1    
   126   64  130 1    
   127   65   66 1    
   128   65   69 1    
   129   65  131 1    
   130   66   67 am   BACKBONE|DICT|INTERRES
   131   66   68 2    
   132   67  132 1    
   133   67  133 1    
   134   69   70 1    
   135   69  134 1    
   136   69  135 1    
   137   70   71 1    
   138   71  136 1    
   139   71  137 1    
@<TRIPOS>SUBSTRUCTURE
     1 UNK         1 GROUP             0       ****    0 ROOT    
