@<TRIPOS>MOLECULE
3R137
137   139    1
SMALL
USER_CHARGES


@<TRIPOS>ATOM
      1 CA         26.3691   -1.6459    4.5344 C.3       0 UNK        -0.2020 
      2 C          26.6883   -2.0101    3.0919 C.2       0 UNK         0.4855 
      3 O          26.6664   -3.1910    2.7435 O.2       0 UNK        -0.5197 
      4 N          26.9882   -1.0045    2.2580 N.am      1 UNK        -0.4892 
      5 CA         27.2767   -1.1228    0.8232 C.3       1 UNK         0.0835 
      6 C6         28.5762   -1.9322    0.5361 C.3       12 UNK        -0.0855 
      7 S7         29.3084   -1.5448   -1.0921 S.3       12 UNK        -0.2931 
      8 C8         29.6904   -3.2149   -1.7151 C.3       12 UNK         0.0378 
      9 C9         30.1293   -3.2139   -3.1755 C.ar      12 UNK        -0.0802 
     10 C10        31.1897   -2.4071   -3.6002 C.ar      12 UNK        -0.0944 
     11 C11        31.6336   -2.4497   -4.9251 C.ar      12 UNK        -0.0787 
     12 C12        31.0089   -3.3111   -5.8330 C.ar      12 UNK        -0.0862 
     13 C13        29.9503   -4.1284   -5.4217 C.ar      12 UNK        -0.0733 
     14 C14        29.5127   -4.0696   -4.0944 C.ar      12 UNK        -0.0832 
     15 C15        29.3248   -5.1266   -6.3891 C.3       12 UNK         0.0240 
     16 S16        28.3269   -4.3369   -7.6900 S.3       12 UNK        -0.2522 
     17 C17        26.8894   -3.7148   -6.7523 C.3       12 UNK        -0.0967 
     18 CA         26.2613   -2.4630   -7.4148 C.3       5 UNK         0.0660 
     19 N          24.9671   -2.1266   -6.8299 N.am      5 UNK        -0.4015 
     20 C          23.9323   -1.6179   -7.5128 C.2       4 UNK         0.4946 
     21 O          23.9045   -1.5080   -8.7393 O.2       4 UNK        -0.5353 
     22 CA         22.7191   -1.1329   -6.6952 C.3       4 UNK         0.0277 
     23 CB         21.6503   -2.2351   -6.6155 C.3       4 UNK        -0.1981 
     24 N          23.0550   -0.6861   -5.3396 N.am      4 UNK        -0.4209 
     25 C          23.8677    0.3405   -5.0500 C.2       3 UNK         0.4942 
     26 O          24.4012    1.0535   -5.8982 O.2       3 UNK        -0.5208 
     27 CA         24.1921    0.5743   -3.5652 C.3       3 UNK         0.0250 
     28 CB         23.1466    1.5025   -2.9274 C.3       3 UNK        -0.1990 
     29 N          24.3194   -0.6474   -2.7588 N.am      3 UNK        -0.4232 
     30 C          25.1016   -1.6996   -3.0394 C.2       2 UNK         0.4993 
     31 O          25.7712   -1.8066   -4.0692 O.2       2 UNK        -0.5286 
     32 CA         25.1872   -2.7912   -1.9652 C.3       2 UNK         0.0209 
     33 CB         25.5529   -4.1622   -2.5630 C.3       2 UNK        -0.1931 
     34 N          26.2110   -2.4024   -1.0002 N.am      2 UNK        -0.4546 
     35 C          26.0228   -1.5755    0.0347 C.2       1 UNK         0.5154 
     36 O          24.9135   -1.1353    0.3498 O.2       1 UNK        -0.5181 
     37 C          27.1842   -1.2364   -7.3269 C.2       5 UNK         0.5014 
     38 O          27.6895   -0.7876   -8.3546 O.2       5 UNK        -0.5248 
     39 N          27.3787   -0.7093   -6.1102 N.am      6 UNK        -0.4434 
     40 CA         28.3797    0.3101   -5.7854 C.3       6 UNK         0.0363 
     41 CB         28.4041    0.5272   -4.2659 C.3       6 UNK        -0.1936 
     42 C          28.2326    1.6490   -6.5319 C.2       6 UNK         0.5081 
     43 O          29.2361    2.3328   -6.7303 O.2       6 UNK        -0.5248 
     44 N          27.0087    2.0068   -6.9451 N.am      7 UNK        -0.4718 
     45 CA         26.7453    3.1885   -7.7720 C.3       7 UNK         0.0273 
     46 CB         25.2663    3.5843   -7.6357 C.3       7 UNK        -0.1935 
     47 C          27.1077    2.9934   -9.2571 C.2       7 UNK         0.5018 
     48 O          27.2698    3.9922   -9.9601 O.2       7 UNK        -0.5186 
     49 N          27.1982    1.7382   -9.7180 N.am      8 UNK        -0.4240 
     50 CA         27.4580    1.3767  -11.1134 C.3       8 UNK         0.0235 
     51 CB         26.4363    0.3142  -11.5532 C.3       8 UNK        -0.2000 
     52 C          28.8887    0.8579  -11.3194 C.2       8 UNK         0.4941 
     53 O          29.5004    1.1741  -12.3413 O.2       8 UNK        -0.5273 
     54 N          29.3879    0.0559  -10.3704 N.am      9 UNK        -0.4262 
     55 CA         30.7169   -0.5534  -10.3889 C.3       9 UNK         0.0264 
     56 CB         30.7891   -1.6168   -9.2805 C.3       9 UNK        -0.1955 
     57 C          31.8433    0.4779  -10.2166 C.2       9 UNK         0.5031 
     58 O          31.6683    1.4878   -9.5298 O.2       9 UNK        -0.5390 
     59 N          33.0067    0.1758  -10.8051 N.am      10 UNK        -0.4204 
     60 CA         34.2338    0.9664  -10.6959 C.3       10 UNK         0.0237 
     61 CB         35.1138    0.6975  -11.9317 C.3       10 UNK        -0.1985 
     62 C          34.9608    0.6673   -9.3714 C.2       10 UNK         0.4970 
     63 O          36.0475    0.0859   -9.3811 O.2       10 UNK        -0.4914 
     64 N          34.3290    1.0440   -8.2537 N.am      11 UNK        -0.4285 
     65 CA         34.8376    0.8402   -6.8870 C.3       11 UNK         0.1007 
     66 C          36.0932    1.6852   -6.5192 C.2       11 UNK         0.5703 
     67 N          36.4400    2.7267   -7.2669 N.am      11 UNK        -0.7361 
     68 O          36.7682    1.3841   -5.5375 O.2       11 UNK        -0.4986 
     69 C69        33.7277    1.0304   -5.8202 C.3       12 UNK        -0.0947 
     70 S70        32.2614   -0.0208   -6.0820 S.3       12 UNK        -0.2240 
     71 C71        32.8136   -1.5912   -5.3547 C.3       12 UNK         0.0194 
     72 H72        25.3591   -1.9675    4.7873 H         1 UNK         0.0906 
     73 H73        27.0644   -2.1439    5.2097 H         1 UNK         0.0906 
     74 H74        26.4367   -0.5724    4.7101 H         1 UNK         0.0906 
     75 H75        26.9532   -0.0562    2.6073 H         1 UNK         0.3140 
     76 H76        27.4564   -0.0981    0.4928 H         1 UNK         0.1085 
     77 H77        29.3324   -1.6855    1.2833 H         1 UNK         0.0836 
     78 H78        28.4029   -3.0047    0.6435 H         1 UNK         0.0836 
     79 H79        30.4867   -3.6471   -1.1075 H         1 UNK         0.0731 
     80 H80        28.8184   -3.8570   -1.5832 H         1 UNK         0.0731 
     81 H81        31.6787   -1.7520   -2.8920 H         1 UNK         0.1312 
     82 H82        31.3566   -3.3592   -6.8557 H         1 UNK         0.1406 
     83 H83        28.7106   -4.7179   -3.7703 H         1 UNK         0.1631 
     84 H84        28.7062   -5.8516   -5.8579 H         1 UNK         0.0717 
     85 H85        30.1207   -5.7013   -6.8649 H         1 UNK         0.0717 
     86 H86        26.1538   -4.5195   -6.7094 H         1 UNK         0.0934 
     87 H87        27.1716   -3.5123   -5.7180 H         1 UNK         0.0934 
     88 H88        26.1199   -2.6906   -8.4740 H         1 UNK         0.0739 
     89 H89        24.9327   -2.1222   -5.8157 H         1 UNK         0.3093 
     90 H90        22.2929   -0.2787   -7.2258 H         1 UNK         0.0818 
     91 H91        20.7465   -1.8779   -6.1215 H         1 UNK         0.0819 
     92 H92        21.3605   -2.5696   -7.6128 H         1 UNK         0.0819 
     93 H93        22.0099   -3.1090   -6.0708 H         1 UNK         0.0819 
     94 H94        22.6654   -1.2159   -4.5735 H         1 UNK         0.3041 
     95 H95        25.1568    1.0818   -3.5268 H         1 UNK         0.0784 
     96 H96        23.0478    2.4286   -3.4960 H         1 UNK         0.0793 
     97 H97        22.1612    1.0363   -2.8891 H         1 UNK         0.0793 
     98 H98        23.4278    1.7785   -1.9109 H         1 UNK         0.0793 
     99 H99        23.8513   -0.6382   -1.8621 H         1 UNK         0.3024 
    100 H100       24.2173   -2.8812   -1.4702 H         1 UNK         0.1171 
    101 H101       24.8113   -4.4761   -3.2986 H         1 UNK         0.0786 
    102 H102       25.5917   -4.9321   -1.7923 H         1 UNK         0.0786 
    103 H103       26.5199   -4.1431   -3.0652 H         1 UNK         0.0786 
    104 H104       27.1655   -2.6346   -1.2379 H         1 UNK         0.2977 
    105 H105       26.8799   -1.1174   -5.3209 H         1 UNK         0.3127 
    106 H106       29.3444   -0.1074   -6.0772 H         1 UNK         0.0770 
    107 H107       27.4629    0.9358   -3.9005 H         1 UNK         0.0814 
    108 H108       29.1972    1.2208   -3.9836 H         1 UNK         0.0814 
    109 H109       28.5922   -0.4090   -3.7411 H         1 UNK         0.0814 
    110 H110       26.2077    1.4340   -6.6933 H         1 UNK         0.2983 
    111 H111       27.3503    4.0172   -7.3970 H         1 UNK         0.0947 
    112 H112       25.0504    4.4935   -8.1984 H         1 UNK         0.0806 
    113 H113       25.0005    3.7759   -6.5959 H         1 UNK         0.0806 
    114 H114       24.6046    2.8029   -8.0119 H         1 UNK         0.0806 
    115 H115       27.1225    0.9697   -9.0588 H         1 UNK         0.3000 
    116 H116       27.3299    2.2481  -11.7594 H         1 UNK         0.0850 
    117 H117       26.6007    0.0188  -12.5903 H         1 UNK         0.0810 
    118 H118       25.4167    0.6934  -11.4816 H         1 UNK         0.0810 
    119 H119       26.4990   -0.5873  -10.9418 H         1 UNK         0.0810 
    120 H120       28.8007   -0.1770   -9.5703 H         1 UNK         0.3040 
    121 H121       30.8429   -1.0476  -11.3545 H         1 UNK         0.0766 
    122 H122       31.7736   -2.0842   -9.2384 H         1 UNK         0.0812 
    123 H123       30.0596   -2.4096   -9.4458 H         1 UNK         0.0812 
    124 H124       30.5892   -1.1849   -8.2991 H         1 UNK         0.0812 
    125 H125       33.0796   -0.6927  -11.3158 H         1 UNK         0.3205 
    126 H126       33.9778    2.0283  -10.6976 H         1 UNK         0.0754 
    127 H127       36.0328    1.2840  -11.8914 H         1 UNK         0.0769 
    128 H128       34.5977    0.9712  -12.8522 H         1 UNK         0.0769 
    129 H129       35.3998   -0.3525  -12.0074 H         1 UNK         0.0769 
    130 H130       33.4074    1.4589   -8.3389 H         1 UNK         0.2981 
    131 H131       35.1616   -0.2005   -6.8292 H         1 UNK         0.0541 
    132 H132       37.2572    3.2620   -7.0192 H         1 UNK         0.3459 
    133 H133       35.8911    2.9847   -8.0707 H         1 UNK         0.3459 
    134 H134       33.3889    2.0679   -5.8171 H         1 UNK         0.0612 
    135 H135       34.1141    0.8400   -4.8172 H         1 UNK         0.0612 
    136 H136       33.4254   -2.1262   -6.0824 H         1 UNK         0.0624 
    137 H137       33.4574   -1.3964   -4.4958 H         1 UNK         0.0624 
@<TRIPOS>BOND
     1    1    2 1    
     2    1   72 1    
     3    1   73 1    
     4    1   74 1    
     5    2    3 2    
     6    2    4 am   BACKBONE|DICT|INTERRES
     7    4    5 1    
     8    4   75 1    
     9    5    6 1    
    10    5   35 1    
    11    5   76 1    
    12    6    7 1    
    13    6   77 1    
    14    6   78 1    
    15    7    8 1    
    16    8    9 1    
    17    8   79 1    
    18    8   80 1    
    19    9   10 ar   
    20    9   14 ar   
    21   10   11 ar   
    22   10   81 1    
    23   11   12 ar   
    24   11   71 1    
    25   12   13 ar   
    26   12   82 1    
    27   13   14 ar   
    28   13   15 1    
    29   14   83 1    
    30   15   16 1    
    31   15   84 1    
    32   15   85 1    
    33   16   17 1    
    34   17   18 1    
    35   17   86 1    
    36   17   87 1    
    37   18   19 1    
    38   18   37 1    
    39   18   88 1    
    40   19   20 am   BACKBONE|DICT|INTERRES
    41   19   89 1    
    42   20   21 2    
    43   20   22 1    
    44   22   23 1    
    45   22   24 1    
    46   22   90 1    
    47   23   91 1    
    48   23   92 1    
    49   23   93 1    
    50   24   25 am   BACKBONE|DICT|INTERRES
    51   24   94 1    
    52   25   26 2    
    53   25   27 1    
    54   27   28 1    
    55   27   29 1    
    56   27   95 1    
    57   28   96 1    
    58   28   97 1    
    59   28   98 1    
    60   29   30 am   BACKBONE|DICT|INTERRES
    61   29   99 1    
    62   30   31 2    
    63   30   32 1    
    64   32   33 1    
    65   32   34 1    
    66   32  100 1    
    67   33  101 1    
    68   33  102 1    
    69   33  103 1    
    70   34   35 am   BACKBONE|DICT|INTERRES
    71   34  104 1    
    72   35   36 2    
    73   37   38 2    
    74   37   39 am   BACKBONE|DICT|INTERRES
    75   39   40 1    
    76   39  105 1    
    77   40   41 1    
    78   40   42 1    
    79   40  106 1    
    80   41  107 1    
    81   41  108 1    
    82   41  109 1    
    83   42   43 2    
    84   42   44 am   BACKBONE|DICT|INTERRES
    85   44   45 1    
    86   44  110 1    
    87   45   46 1    
    88   45   47 1    
    89   45  111 1    
    90   46  112 1    
    91   46  113 1    
    92   46  114 1    
    93   47   48 2    
    94   47   49 am   BACKBONE|DICT|INTERRES
    95   49   50 1    
    96   49  115 1    
    97   50   51 1    
    98   50   52 1    
    99   50  116 1    
   100   51  117 1    
   101   51  118 1    
   102   51  119 1    
   103   52   53 2    
   104   52   54 am   BACKBONE|DICT|INTERRES
   105   54   55 1    
   106   54  120 1    
   107   55   56 1    
   108   55   57 1    
   109   55  121 1    
   110   56  122 1    
   111   56  123 1    
   112   56  124 1    
   113   57   58 2    
   114   57   59 am   BACKBONE|DICT|INTERRES
   115   59   60 1    
   116   59  125 1    
   117   60   61 1    
   118   60   62 1    
   119   60  126 1    
   120   61  127 1    
   121   61  128 1    
   122   61  129 1    
   123   62   63 2    
   124   62   64 am   BACKBONE|DICT|INTERRES
   125   64   65 1    
   126   64  130 1    
   127   65   66 1    
   128   65   69 1    
   129   65  131 1    
   130   66   67 am   BACKBONE|DICT|INTERRES
   131   66   68 2    
   132   67  132 1    
   133   67  133 1    
   134   69   70 1    
   135   69  134 1    
   136   69  135 1    
   137   70   71 1    
   138   71  136 1    
   139   71  137 1    
@<TRIPOS>SUBSTRUCTURE
     1 UNK         1 GROUP             0       ****    0 ROOT    
