@<TRIPOS>MOLECULE
3R137
137   139    1
SMALL
USER_CHARGES


@<TRIPOS>ATOM
      1 CA         26.3784   -5.5402    2.6216 C.3       0 UNK        -0.2020 
      2 C          26.4102   -4.0757    2.2108 C.2       0 UNK         0.4855 
      3 O          25.7800   -3.2442    2.8644 O.2       0 UNK        -0.5197 
      4 N          27.1439   -3.7544    1.1364 N.am      1 UNK        -0.4892 
      5 CA         27.2643   -2.4022    0.5738 C.3       1 UNK         0.0835 
      6 C6         28.4210   -2.3287   -0.4526 C.3       12 UNK        -0.0855 
      7 S7         29.1197   -0.6539   -0.6333 S.3       12 UNK        -0.2931 
      8 C8         30.7855   -1.0357   -1.2677 C.3       12 UNK         0.0378 
      9 C9         30.7569   -1.4289   -2.7388 C.ar      12 UNK        -0.0802 
     10 C10        31.1008   -0.4976   -3.7219 C.ar      12 UNK        -0.0944 
     11 C11        31.0931   -0.8557   -5.0731 C.ar      12 UNK        -0.0787 
     12 C12        30.7203   -2.1520   -5.4411 C.ar      12 UNK        -0.0862 
     13 C13        30.3570   -3.0896   -4.4685 C.ar      12 UNK        -0.0733 
     14 C14        30.4015   -2.7263   -3.1198 C.ar      12 UNK        -0.0832 
     15 C15        29.9420   -4.5059   -4.8529 C.3       12 UNK         0.0240 
     16 S16        28.6601   -4.5774   -6.1488 S.3       12 UNK        -0.2522 
     17 C17        27.2453   -3.6932   -5.4018 C.3       12 UNK        -0.0967 
     18 CA         26.6527   -2.6585   -6.3946 C.3       5 UNK         0.0660 
     19 N          25.2197   -2.4346   -6.1978 N.am      5 UNK        -0.4015 
     20 C          24.3660   -2.1482   -7.1935 C.2       4 UNK         0.4946 
     21 O          24.6760   -2.1476   -8.3855 O.2       4 UNK        -0.5353 
     22 CA         22.9172   -1.7918   -6.8121 C.3       4 UNK         0.0277 
     23 CB         22.0282   -3.0455   -6.8507 C.3       4 UNK        -0.1981 
     24 N          22.7883   -1.1484   -5.5037 N.am      4 UNK        -0.4209 
     25 C          23.3240    0.0351   -5.1724 C.2       3 UNK         0.4942 
     26 O          23.9689    0.7396   -5.9461 O.2       3 UNK        -0.5208 
     27 CA         23.1624    0.4787   -3.7100 C.3       3 UNK         0.0250 
     28 CB         21.8550    1.2663   -3.5295 C.3       3 UNK        -0.1990 
     29 N          23.2096   -0.6247   -2.7444 N.am      3 UNK        -0.4232 
     30 C          24.2113   -1.5068   -2.6168 C.2       2 UNK         0.4993 
     31 O          25.2039   -1.5454   -3.3529 O.2       2 UNK        -0.5286 
     32 CA         24.0364   -2.5684   -1.5201 C.3       2 UNK         0.0209 
     33 CB         23.5325   -3.8849   -2.1340 C.3       2 UNK        -0.1931 
     34 N          25.2843   -2.8224   -0.8020 N.am      2 UNK        -0.4546 
     35 C          25.9369   -1.9234   -0.0498 C.2       1 UNK         0.5154 
     36 O          25.5207   -0.7865    0.1812 O.2       1 UNK        -0.5181 
     37 C          27.4005   -1.3155   -6.3610 C.2       5 UNK         0.5014 
     38 O          28.1988   -1.0512   -7.2600 O.2       5 UNK        -0.5248 
     39 N          27.1002   -0.4713   -5.3597 N.am      6 UNK        -0.4434 
     40 CA         27.7246    0.8430   -5.1597 C.3       6 UNK         0.0363 
     41 CB         27.1544    1.5012   -3.8956 C.3       6 UNK        -0.1936 
     42 C          27.6054    1.7863   -6.3715 C.2       6 UNK         0.5081 
     43 O          28.5585    2.5039   -6.6785 O.2       6 UNK        -0.5248 
     44 N          26.4641    1.7241   -7.0720 N.am      7 UNK        -0.4718 
     45 CA         26.1753    2.4587   -8.3067 C.3       7 UNK         0.0273 
     46 CB         24.6968    2.2534   -8.6773 C.3       7 UNK        -0.1935 
     47 C          27.0784    2.1119   -9.5072 C.2       7 UNK         0.5018 
     48 O          27.0663    2.8674  -10.4804 O.2       7 UNK        -0.5186 
     49 N          27.8424    1.0078   -9.4444 N.am      8 UNK        -0.4240 
     50 CA         28.8107    0.6264  -10.4792 C.3       8 UNK         0.0235 
     51 CB         29.3235   -0.7996  -10.2222 C.3       8 UNK        -0.2000 
     52 C          29.9951    1.6022  -10.5890 C.2       8 UNK         0.4941 
     53 O          30.5458    1.7453  -11.6817 O.2       8 UNK        -0.5273 
     54 N          30.3597    2.2489   -9.4690 N.am      9 UNK        -0.4262 
     55 CA         31.3998    3.2727   -9.2824 C.3       9 UNK         0.0264 
     56 CB         31.0635    4.5530  -10.0706 C.3       9 UNK        -0.1955 
     57 C          32.8422    2.8132   -9.5694 C.2       9 UNK         0.5031 
     58 O          33.7193    3.0227   -8.7318 O.2       9 UNK        -0.5390 
     59 N          33.0725    2.1744  -10.7214 N.am      10 UNK        -0.4204 
     60 CA         34.3587    1.6487  -11.1916 C.3       10 UNK         0.0237 
     61 CB         34.3381    1.6027  -12.7310 C.3       10 UNK        -0.1985 
     62 C          34.7166    0.2829  -10.5662 C.2       10 UNK         0.4970 
     63 O          35.2923   -0.5721  -11.2413 O.2       10 UNK        -0.4914 
     64 N          34.3644    0.0981   -9.2909 N.am      11 UNK        -0.4285 
     65 CA         34.6330   -1.0977   -8.4810 C.3       11 UNK         0.1007 
     66 C          36.0780   -1.1820   -7.9072 C.2       11 UNK         0.5703 
     67 N          36.9042   -0.1483   -8.0220 N.am      11 UNK        -0.7361 
     68 O          36.4635   -2.2149   -7.3643 O.2       11 UNK        -0.4986 
     69 C69        33.5496   -1.2834   -7.3847 C.3       12 UNK        -0.0947 
     70 S70        33.2802    0.2106   -6.3655 S.3       12 UNK        -0.2240 
     71 C71        31.4784    0.1677   -6.1295 C.3       12 UNK         0.0194 
     72 H72        26.9838   -6.1634    1.9636 H         1 UNK         0.0906 
     73 H73        26.7567   -5.6532    3.6372 H         1 UNK         0.0906 
     74 H74        25.3553   -5.9146    2.5957 H         1 UNK         0.0906 
     75 H75        27.6476   -4.4835    0.6509 H         1 UNK         0.3140 
     76 H76        27.4946   -1.7317    1.4054 H         1 UNK         0.1085 
     77 H77        29.2320   -2.9832   -0.1293 H         1 UNK         0.0836 
     78 H78        28.1075   -2.6958   -1.4321 H         1 UNK         0.0836 
     79 H79        31.4174   -0.1571   -1.1285 H         1 UNK         0.0731 
     80 H80        31.2424   -1.8286   -0.6738 H         1 UNK         0.0731 
     81 H81        31.3827    0.5069   -3.4369 H         1 UNK         0.1312 
     82 H82        30.6975   -2.4272   -6.4866 H         1 UNK         0.1406 
     83 H83        30.1543   -3.4568   -2.3629 H         1 UNK         0.1631 
     84 H84        29.5787   -5.0547   -3.9826 H         1 UNK         0.0717 
     85 H85        30.8239   -5.0414   -5.2066 H         1 UNK         0.0717 
     86 H86        26.4972   -4.4489   -5.1572 H         1 UNK         0.0934 
     87 H87        27.5230   -3.2342   -4.4505 H         1 UNK         0.0934 
     88 H88        26.7827   -3.0635   -7.4012 H         1 UNK         0.0739 
     89 H89        24.9072   -2.3479   -5.2376 H         1 UNK         0.3093 
     90 H90        22.5494   -1.0872   -7.5613 H         1 UNK         0.0818 
     91 H91        20.9812   -2.7964   -6.6767 H         1 UNK         0.0819 
     92 H92        22.0845   -3.5333   -7.8251 H         1 UNK         0.0819 
     93 H93        22.3295   -3.7791   -6.1017 H         1 UNK         0.0819 
     94 H94        22.2731   -1.6516   -4.7965 H         1 UNK         0.3041 
     95 H95        23.9916    1.1463   -3.4751 H         1 UNK         0.0784 
     96 H96        21.8066    2.1054   -4.2253 H         1 UNK         0.0793 
     97 H97        20.9777    0.6434   -3.7088 H         1 UNK         0.0793 
     98 H98        21.7750    1.6790   -2.5236 H         1 UNK         0.0793 
     99 H99        22.4303   -0.6850   -2.1044 H         1 UNK         0.3024 
    100 H100       23.3026   -2.2140   -0.7927 H         1 UNK         0.1171 
    101 H101       22.5839   -3.7387   -2.6526 H         1 UNK         0.0786 
    102 H102       23.3658   -4.6424   -1.3677 H         1 UNK         0.0786 
    103 H103       24.2406   -4.2903   -2.8583 H         1 UNK         0.0786 
    104 H104       25.7039   -3.7309   -0.9302 H         1 UNK         0.2977 
    105 H105       26.4320   -0.7700   -4.6540 H         1 UNK         0.3127 
    106 H106       28.7859    0.6663   -4.9912 H         1 UNK         0.0770 
    107 H107       26.1051    1.7636   -4.0214 H         1 UNK         0.0814 
    108 H108       27.6928    2.4204   -3.6619 H         1 UNK         0.0814 
    109 H109       27.2404    0.8448   -3.0288 H         1 UNK         0.0814 
    110 H110       25.7094    1.1456   -6.7107 H         1 UNK         0.2983 
    111 H111       26.3300    3.5191   -8.0973 H         1 UNK         0.0947 
    112 H112       24.4410    2.7822   -9.5965 H         1 UNK         0.0806 
    113 H113       24.0371    2.6326   -7.8967 H         1 UNK         0.0806 
    114 H114       24.4643    1.1984   -8.8297 H         1 UNK         0.0806 
    115 H115       27.8050    0.4220   -8.6149 H         1 UNK         0.3000 
    116 H116       28.2900    0.6320  -11.4392 H         1 UNK         0.0850 
    117 H117       29.9725   -1.1319  -11.0335 H         1 UNK         0.0810 
    118 H118       28.5014   -1.5121  -10.1507 H         1 UNK         0.0810 
    119 H119       29.9016   -0.8618   -9.2994 H         1 UNK         0.0810 
    120 H120       29.8219    2.0454   -8.6346 H         1 UNK         0.3040 
    121 H121       31.3633    3.5269   -8.2216 H         1 UNK         0.0766 
    122 H122       30.0813    4.9382   -9.7965 H         1 UNK         0.0812 
    123 H123       31.0666    4.3836  -11.1478 H         1 UNK         0.0812 
    124 H124       31.7899    5.3402   -9.8639 H         1 UNK         0.0812 
    125 H125       32.2571    1.9967  -11.3089 H         1 UNK         0.3205 
    126 H126       35.1449    2.3447  -10.8918 H         1 UNK         0.0754 
    127 H127       35.3048    1.2933  -13.1308 H         1 UNK         0.0769 
    128 H128       34.1162    2.5829  -13.1536 H         1 UNK         0.0769 
    129 H129       33.5893    0.9011  -13.1013 H         1 UNK         0.0769 
    130 H130       33.9531    0.8778   -8.7927 H         1 UNK         0.2981 
    131 H131       34.5487   -1.9600   -9.1450 H         1 UNK         0.0541 
    132 H132       37.8390   -0.2200   -7.6525 H         1 UNK         0.3459 
    133 H133       36.5964    0.7059   -8.4576 H         1 UNK         0.3459 
    134 H134       33.7853   -2.1220   -6.7269 H         1 UNK         0.0612 
    135 H135       32.6099   -1.5490   -7.8704 H         1 UNK         0.0612 
    136 H136       31.1436    1.1593   -5.8213 H         1 UNK         0.0624 
    137 H137       30.9750   -0.0389   -7.0752 H         1 UNK         0.0624 
@<TRIPOS>BOND
     1    1    2 1    
     2    1   72 1    
     3    1   73 1    
     4    1   74 1    
     5    2    3 2    
     6    2    4 am   BACKBONE|DICT|INTERRES
     7    4    5 1    
     8    4   75 1    
     9    5    6 1    
    10    5   35 1    
    11    5   76 1    
    12    6    7 1    
    13    6   77 1    
    14    6   78 1    
    15    7    8 1    
    16    8    9 1    
    17    8   79 1    
    18    8   80 1    
    19    9   10 ar   
    20    9   14 ar   
    21   10   11 ar   
    22   10   81 1    
    23   11   12 ar   
    24   11   71 1    
    25   12   13 ar   
    26   12   82 1    
    27   13   14 ar   
    28   13   15 1    
    29   14   83 1    
    30   15   16 1    
    31   15   84 1    
    32   15   85 1    
    33   16   17 1    
    34   17   18 1    
    35   17   86 1    
    36   17   87 1    
    37   18   19 1    
    38   18   37 1    
    39   18   88 1    
    40   19   20 am   BACKBONE|DICT|INTERRES
    41   19   89 1    
    42   20   21 2    
    43   20   22 1    
    44   22   23 1    
    45   22   24 1    
    46   22   90 1    
    47   23   91 1    
    48   23   92 1    
    49   23   93 1    
    50   24   25 am   BACKBONE|DICT|INTERRES
    51   24   94 1    
    52   25   26 2    
    53   25   27 1    
    54   27   28 1    
    55   27   29 1    
    56   27   95 1    
    57   28   96 1    
    58   28   97 1    
    59   28   98 1    
    60   29   30 am   BACKBONE|DICT|INTERRES
    61   29   99 1    
    62   30   31 2    
    63   30   32 1    
    64   32   33 1    
    65   32   34 1    
    66   32  100 1    
    67   33  101 1    
    68   33  102 1    
    69   33  103 1    
    70   34   35 am   BACKBONE|DICT|INTERRES
    71   34  104 1    
    72   35   36 2    
    73   37   38 2    
    74   37   39 am   BACKBONE|DICT|INTERRES
    75   39   40 1    
    76   39  105 1    
    77   40   41 1    
    78   40   42 1    
    79   40  106 1    
    80   41  107 1    
    81   41  108 1    
    82   41  109 1    
    83   42   43 2    
    84   42   44 am   BACKBONE|DICT|INTERRES
    85   44   45 1    
    86   44  110 1    
    87   45   46 1    
    88   45   47 1    
    89   45  111 1    
    90   46  112 1    
    91   46  113 1    
    92   46  114 1    
    93   47   48 2    
    94   47   49 am   BACKBONE|DICT|INTERRES
    95   49   50 1    
    96   49  115 1    
    97   50   51 1    
    98   50   52 1    
    99   50  116 1    
   100   51  117 1    
   101   51  118 1    
   102   51  119 1    
   103   52   53 2    
   104   52   54 am   BACKBONE|DICT|INTERRES
   105   54   55 1    
   106   54  120 1    
   107   55   56 1    
   108   55   57 1    
   109   55  121 1    
   110   56  122 1    
   111   56  123 1    
   112   56  124 1    
   113   57   58 2    
   114   57   59 am   BACKBONE|DICT|INTERRES
   115   59   60 1    
   116   59  125 1    
   117   60   61 1    
   118   60   62 1    
   119   60  126 1    
   120   61  127 1    
   121   61  128 1    
   122   61  129 1    
   123   62   63 2    
   124   62   64 am   BACKBONE|DICT|INTERRES
   125   64   65 1    
   126   64  130 1    
   127   65   66 1    
   128   65   69 1    
   129   65  131 1    
   130   66   67 am   BACKBONE|DICT|INTERRES
   131   66   68 2    
   132   67  132 1    
   133   67  133 1    
   134   69   70 1    
   135   69  134 1    
   136   69  135 1    
   137   70   71 1    
   138   71  136 1    
   139   71  137 1    
@<TRIPOS>SUBSTRUCTURE
     1 UNK         1 GROUP             0       ****    0 ROOT    
