@<TRIPOS>MOLECULE
3R137
137   139    1
SMALL
USER_CHARGES


@<TRIPOS>ATOM
      1 CA         31.5322   -4.9899   -5.9215 C.3       0 UNK        -0.2020 
      2 C          30.2835   -5.6421   -5.3466 C.2       0 UNK         0.4855 
      3 O          30.0548   -6.8292   -5.5788 O.2       0 UNK        -0.5197 
      4 N          29.4911   -4.8776   -4.5854 N.am      1 UNK        -0.4892 
      5 CA         28.2217   -5.2998   -3.9884 C.3       1 UNK         0.0835 
      6 C6         27.9648   -4.5724   -2.6377 C.3       12 UNK        -0.0855 
      7 S7         28.8069   -5.3560   -1.2203 S.3       12 UNK        -0.2931 
      8 C8         30.5701   -4.9441   -1.4586 C.3       12 UNK         0.0378 
      9 C9         30.8682   -3.4545   -1.6064 C.ar      12 UNK        -0.0802 
     10 C10        31.8154   -3.0359   -2.5447 C.ar      12 UNK        -0.0944 
     11 C11        32.1432   -1.6838   -2.6763 C.ar      12 UNK        -0.0787 
     12 C12        31.5125   -0.7391   -1.8619 C.ar      12 UNK        -0.0862 
     13 C13        30.5643   -1.1434   -0.9160 C.ar      12 UNK        -0.0733 
     14 C14        30.2514   -2.5007   -0.7894 C.ar      12 UNK        -0.0832 
     15 C15        29.8949   -0.1273   -0.0032 C.3       12 UNK         0.0240 
     16 S16        28.3212    0.4720   -0.6945 S.3       12 UNK        -0.2522 
     17 C17        28.8835    1.7980   -1.8153 C.3       12 UNK        -0.0967 
     18 CA         28.3455    1.6382   -3.2612 C.3       5 UNK         0.0660 
     19 N          26.8783    1.6617   -3.2939 N.am      5 UNK        -0.4015 
     20 C          26.1054    1.1483   -4.2579 C.2       4 UNK         0.4946 
     21 O          26.5355    0.5325   -5.2385 O.2       4 UNK        -0.5353 
     22 CA         24.6074    1.4381   -4.1482 C.3       4 UNK         0.0277 
     23 CB         24.2434    2.7129   -4.9300 C.3       4 UNK        -0.1981 
     24 N          23.8783    0.3000   -4.6917 N.am      4 UNK        -0.4209 
     25 C          22.6849   -0.1293   -4.2647 C.2       3 UNK         0.4942 
     26 O          22.0141    0.4565   -3.4133 O.2       3 UNK        -0.5208 
     27 CA         22.1340   -1.4326   -4.8781 C.3       3 UNK         0.0250 
     28 CB         21.0535   -1.1138   -5.9251 C.3       3 UNK        -0.1990 
     29 N          23.1485   -2.2992   -5.4897 N.am      3 UNK        -0.4232 
     30 C          24.1602   -2.8893   -4.8380 C.2       2 UNK         0.4993 
     31 O          24.3525   -2.7786   -3.6239 O.2       2 UNK        -0.5286 
     32 CA         25.1285   -3.7229   -5.6888 C.3       2 UNK         0.0209 
     33 CB         25.5432   -3.0001   -6.9849 C.3       2 UNK        -0.1931 
     34 N          26.3079   -4.0282   -4.8826 N.am      2 UNK        -0.4546 
     35 C          27.0973   -5.0978   -5.0288 C.2       1 UNK         0.5154 
     36 O          26.9558   -5.9179   -5.9378 O.2       1 UNK        -0.5181 
     37 C          28.8976    2.7336   -4.2012 C.2       5 UNK         0.5014 
     38 O          29.5543    3.6719   -3.7454 O.2       5 UNK        -0.5248 
     39 N          28.5676    2.6242   -5.4902 N.am      6 UNK        -0.4434 
     40 CA         28.8556    3.6021   -6.5328 C.3       6 UNK         0.0363 
     41 CB         27.7621    4.6926   -6.5367 C.3       6 UNK        -0.1936 
     42 C          29.0000    2.8658   -7.8708 C.2       6 UNK         0.5081 
     43 O          29.4077    1.7014   -7.8809 O.2       6 UNK        -0.5248 
     44 N          28.6629    3.5379   -8.9800 N.am      7 UNK        -0.4718 
     45 CA         28.7744    3.0420  -10.3585 C.3       7 UNK         0.0273 
     46 CB         28.2965    4.1338  -11.3288 C.3       7 UNK        -0.1935 
     47 C          28.0367    1.7190  -10.6356 C.2       7 UNK         0.5018 
     48 O          28.4863    0.9560  -11.4895 O.2       7 UNK        -0.5186 
     49 N          26.9623    1.4455   -9.8804 N.am      8 UNK        -0.4240 
     50 CA         26.2232    0.1786   -9.8899 C.3       8 UNK         0.0235 
     51 CB         24.9949    0.3006   -8.9710 C.3       8 UNK        -0.2000 
     52 C          27.0822   -1.0300   -9.4724 C.2       8 UNK         0.4941 
     53 O          26.9265   -2.1085  -10.0448 O.2       8 UNK        -0.5273 
     54 N          27.9745   -0.8200   -8.4954 N.am      9 UNK        -0.4262 
     55 CA         28.9256   -1.8127   -7.9899 C.3       9 UNK         0.0264 
     56 CB         29.0502   -1.6258   -6.4667 C.3       9 UNK        -0.1955 
     57 C          30.3099   -1.6929   -8.6553 C.2       9 UNK         0.5031 
     58 O          31.1688   -2.5347   -8.3932 O.2       9 UNK        -0.5390 
     59 N          30.5089   -0.6428   -9.4684 N.am      10 UNK        -0.4204 
     60 CA         31.7816   -0.1503  -10.0119 C.3       10 UNK         0.0237 
     61 CB         32.4350   -1.1822  -10.9561 C.3       10 UNK        -0.1985 
     62 C          32.7310    0.3549   -8.9040 C.2       10 UNK         0.4970 
     63 O          33.9495    0.2169   -9.0253 O.2       10 UNK        -0.4914 
     64 N          32.1449    0.9366   -7.8506 N.am      11 UNK        -0.4285 
     65 CA         32.8188    1.4361   -6.6421 C.3       11 UNK         0.1007 
     66 C          32.8691    2.9895   -6.5702 C.2       11 UNK         0.5703 
     67 N          32.4537    3.7189   -7.6002 N.am      11 UNK        -0.7361 
     68 O          33.3192    3.5482   -5.5731 O.2       11 UNK        -0.4986 
     69 C69        32.1890    0.8091   -5.3677 C.3       12 UNK        -0.0947 
     70 S70        32.4578   -0.9958   -5.3255 S.3       12 UNK        -0.2240 
     71 C71        33.1967   -1.2602   -3.6871 C.3       12 UNK         0.0194 
     72 H72        31.5175   -5.0472   -7.0098 H         1 UNK         0.0906 
     73 H73        31.6123   -3.9391   -5.6454 H         1 UNK         0.0906 
     74 H74        32.4246   -5.5032   -5.5646 H         1 UNK         0.0906 
     75 H75        29.7410   -3.9121   -4.4297 H         1 UNK         0.3140 
     76 H76        28.2544   -6.3740   -3.7909 H         1 UNK         0.1085 
     77 H77        28.2292   -3.5146   -2.6920 H         1 UNK         0.0836 
     78 H78        26.9047   -4.6019   -2.3772 H         1 UNK         0.0836 
     79 H79        30.9417   -5.5008   -2.3194 H         1 UNK         0.0731 
     80 H80        31.1270   -5.3185   -0.5988 H         1 UNK         0.0731 
     81 H81        32.3136   -3.7657   -3.1682 H         1 UNK         0.1312 
     82 H82        31.7708    0.3060   -1.9583 H         1 UNK         0.1406 
     83 H83        29.5275   -2.8153   -0.0499 H         1 UNK         0.1631 
     84 H84        30.5625    0.7119    0.1984 H         1 UNK         0.0717 
     85 H85        29.6933   -0.5854    0.9664 H         1 UNK         0.0717 
     86 H86        28.5664    2.7521   -1.3895 H         1 UNK         0.0934 
     87 H87        29.9738    1.8273   -1.8233 H         1 UNK         0.0934 
     88 H88        28.6922    0.6758   -3.6458 H         1 UNK         0.0739 
     89 H89        26.4380    2.1697   -2.5408 H         1 UNK         0.3093 
     90 H90        24.3521    1.5680   -3.0939 H         1 UNK         0.0818 
     91 H91        24.7891    3.5773   -4.5494 H         1 UNK         0.0819 
     92 H92        24.4823    2.6162   -5.9901 H         1 UNK         0.0819 
     93 H93        23.1801    2.9384   -4.8465 H         1 UNK         0.0819 
     94 H94        24.4011   -0.2534   -5.3576 H         1 UNK         0.3041 
     95 H95        21.6684   -1.9953   -4.0661 H         1 UNK         0.0784 
     96 H96        20.2629   -0.4966   -5.4956 H         1 UNK         0.0793 
     97 H97        21.4645   -0.5695   -6.7765 H         1 UNK         0.0793 
     98 H98        20.5822   -2.0223   -6.3007 H         1 UNK         0.0793 
     99 H99        23.0646   -2.4492   -6.4847 H         1 UNK         0.3024 
    100 H100       24.6188   -4.6558   -5.9415 H         1 UNK         0.1171 
    101 H101       24.7089   -2.9119   -7.6808 H         1 UNK         0.0786 
    102 H102       25.9103   -1.9938   -6.7818 H         1 UNK         0.0786 
    103 H103       26.3281   -3.5442   -7.5099 H         1 UNK         0.0786 
    104 H104       26.4174   -3.4279   -4.0749 H         1 UNK         0.2977 
    105 H105       28.0403    1.8054   -5.7809 H         1 UNK         0.3127 
    106 H106       29.8208    4.0692   -6.3278 H         1 UNK         0.0770 
    107 H107       28.0026    5.5024   -7.2261 H         1 UNK         0.0814 
    108 H108       27.6559    5.1466   -5.5512 H         1 UNK         0.0814 
    109 H109       26.7888    4.2883   -6.8181 H         1 UNK         0.0814 
    110 H110       28.3323    4.4865   -8.8750 H         1 UNK         0.2983 
    111 H111       29.8340    2.8590  -10.5489 H         1 UNK         0.0947 
    112 H112       28.3902    3.8047  -12.3649 H         1 UNK         0.0806 
    113 H113       28.8885    5.0436  -11.2272 H         1 UNK         0.0806 
    114 H114       27.2499    4.3923  -11.1627 H         1 UNK         0.0806 
    115 H115       26.6665    2.1421   -9.2126 H         1 UNK         0.3000 
    116 H116       25.8773    0.0026  -10.9107 H         1 UNK         0.0850 
    117 H117       25.2799    0.4938   -7.9355 H         1 UNK         0.0810 
    118 H118       24.4082   -0.6189   -8.9813 H         1 UNK         0.0810 
    119 H119       24.3349    1.1060   -9.2937 H         1 UNK         0.0810 
    120 H120       28.0631    0.1118   -8.1061 H         1 UNK         0.3040 
    121 H121       28.5567   -2.8215   -8.1846 H         1 UNK         0.0766 
    122 H122       28.0977   -1.7776   -5.9611 H         1 UNK         0.0812 
    123 H123       29.4041   -0.6264   -6.2122 H         1 UNK         0.0812 
    124 H124       29.7575   -2.3370   -6.0424 H         1 UNK         0.0812 
    125 H125       29.7153   -0.0353   -9.6191 H         1 UNK         0.3205 
    126 H126       31.5300    0.7250  -10.6123 H         1 UNK         0.0754 
    127 H127       33.2902   -0.7484  -11.4755 H         1 UNK         0.0769 
    128 H128       31.7329   -1.5227  -11.7172 H         1 UNK         0.0769 
    129 H129       32.7958   -2.0576  -10.4156 H         1 UNK         0.0769 
    130 H130       31.1342    1.0494   -7.8547 H         1 UNK         0.2981 
    131 H131       33.8667    1.1326   -6.6674 H         1 UNK         0.0541 
    132 H132       32.1274    3.2741   -8.4418 H         1 UNK         0.3459 
    133 H133       32.5156    4.7232   -7.5474 H         1 UNK         0.3459 
    134 H134       31.1161    1.0009   -5.3360 H         1 UNK         0.0612 
    135 H135       32.6047    1.2564   -4.4639 H         1 UNK         0.0612 
    136 H136       33.7275   -0.3695   -3.3490 H         1 UNK         0.0624 
    137 H137       33.9530   -2.0418   -3.7742 H         1 UNK         0.0624 
@<TRIPOS>BOND
     1    1    2 1    
     2    1   72 1    
     3    1   73 1    
     4    1   74 1    
     5    2    3 2    
     6    2    4 am   BACKBONE|DICT|INTERRES
     7    4    5 1    
     8    4   75 1    
     9    5    6 1    
    10    5   35 1    
    11    5   76 1    
    12    6    7 1    
    13    6   77 1    
    14    6   78 1    
    15    7    8 1    
    16    8    9 1    
    17    8   79 1    
    18    8   80 1    
    19    9   10 ar   
    20    9   14 ar   
    21   10   11 ar   
    22   10   81 1    
    23   11   12 ar   
    24   11   71 1    
    25   12   13 ar   
    26   12   82 1    
    27   13   14 ar   
    28   13   15 1    
    29   14   83 1    
    30   15   16 1    
    31   15   84 1    
    32   15   85 1    
    33   16   17 1    
    34   17   18 1    
    35   17   86 1    
    36   17   87 1    
    37   18   19 1    
    38   18   37 1    
    39   18   88 1    
    40   19   20 am   BACKBONE|DICT|INTERRES
    41   19   89 1    
    42   20   21 2    
    43   20   22 1    
    44   22   23 1    
    45   22   24 1    
    46   22   90 1    
    47   23   91 1    
    48   23   92 1    
    49   23   93 1    
    50   24   25 am   BACKBONE|DICT|INTERRES
    51   24   94 1    
    52   25   26 2    
    53   25   27 1    
    54   27   28 1    
    55   27   29 1    
    56   27   95 1    
    57   28   96 1    
    58   28   97 1    
    59   28   98 1    
    60   29   30 am   BACKBONE|DICT|INTERRES
    61   29   99 1    
    62   30   31 2    
    63   30   32 1    
    64   32   33 1    
    65   32   34 1    
    66   32  100 1    
    67   33  101 1    
    68   33  102 1    
    69   33  103 1    
    70   34   35 am   BACKBONE|DICT|INTERRES
    71   34  104 1    
    72   35   36 2    
    73   37   38 2    
    74   37   39 am   BACKBONE|DICT|INTERRES
    75   39   40 1    
    76   39  105 1    
    77   40   41 1    
    78   40   42 1    
    79   40  106 1    
    80   41  107 1    
    81   41  108 1    
    82   41  109 1    
    83   42   43 2    
    84   42   44 am   BACKBONE|DICT|INTERRES
    85   44   45 1    
    86   44  110 1    
    87   45   46 1    
    88   45   47 1    
    89   45  111 1    
    90   46  112 1    
    91   46  113 1    
    92   46  114 1    
    93   47   48 2    
    94   47   49 am   BACKBONE|DICT|INTERRES
    95   49   50 1    
    96   49  115 1    
    97   50   51 1    
    98   50   52 1    
    99   50  116 1    
   100   51  117 1    
   101   51  118 1    
   102   51  119 1    
   103   52   53 2    
   104   52   54 am   BACKBONE|DICT|INTERRES
   105   54   55 1    
   106   54  120 1    
   107   55   56 1    
   108   55   57 1    
   109   55  121 1    
   110   56  122 1    
   111   56  123 1    
   112   56  124 1    
   113   57   58 2    
   114   57   59 am   BACKBONE|DICT|INTERRES
   115   59   60 1    
   116   59  125 1    
   117   60   61 1    
   118   60   62 1    
   119   60  126 1    
   120   61  127 1    
   121   61  128 1    
   122   61  129 1    
   123   62   63 2    
   124   62   64 am   BACKBONE|DICT|INTERRES
   125   64   65 1    
   126   64  130 1    
   127   65   66 1    
   128   65   69 1    
   129   65  131 1    
   130   66   67 am   BACKBONE|DICT|INTERRES
   131   66   68 2    
   132   67  132 1    
   133   67  133 1    
   134   69   70 1    
   135   69  134 1    
   136   69  135 1    
   137   70   71 1    
   138   71  136 1    
   139   71  137 1    
@<TRIPOS>SUBSTRUCTURE
     1 UNK         1 GROUP             0       ****    0 ROOT    
