@<TRIPOS>MOLECULE
3R137
137   139    1
SMALL
USER_CHARGES


@<TRIPOS>ATOM
      1 CA         31.1630    0.1384   -0.9150 C.3       0 UNK        -0.2020 
      2 C          30.1166   -0.4601   -1.8419 C.2       0 UNK         0.4855 
      3 O          30.0662   -0.1060   -3.0188 O.2       0 UNK        -0.5197 
      4 N          29.2781   -1.3673   -1.3204 N.am      1 UNK        -0.4892 
      5 CA         28.2268   -2.0521   -2.0842 C.3       1 UNK         0.0835 
      6 C6         27.6351   -3.2691   -1.3233 C.3       12 UNK        -0.0855 
      7 S7         28.7676   -4.5401   -0.6365 S.3       12 UNK        -0.2931 
      8 C8         30.3704   -4.4104   -1.5134 C.3       12 UNK         0.0378 
      9 C9         30.3383   -4.6734   -3.0182 C.ar      12 UNK        -0.0802 
     10 C10        31.3869   -4.1787   -3.8024 C.ar      12 UNK        -0.0944 
     11 C11        31.4112   -4.3963   -5.1826 C.ar      12 UNK        -0.0787 
     12 C12        30.3801   -5.1214   -5.7806 C.ar      12 UNK        -0.0862 
     13 C13        29.3099   -5.5934   -5.0179 C.ar      12 UNK        -0.0733 
     14 C14        29.3062   -5.3932   -3.6355 C.ar      12 UNK        -0.0832 
     15 C15        28.1156   -6.2362   -5.7078 C.3       12 UNK         0.0240 
     16 S16        26.6984   -5.0866   -5.8130 S.3       12 UNK        -0.2522 
     17 C17        27.5184   -3.5022   -6.2189 C.3       12 UNK        -0.0967 
     18 CA         26.5957   -2.4475   -6.8641 C.3       5 UNK         0.0660 
     19 N          25.3378   -2.2824   -6.1254 N.am      5 UNK        -0.4015 
     20 C          24.3243   -1.4711   -6.4584 C.2       4 UNK         0.4946 
     21 O          24.3741   -0.6345   -7.3607 O.2       4 UNK        -0.5353 
     22 CA         23.0293   -1.6412   -5.6594 C.3       4 UNK         0.0277 
     23 CB         22.3159   -2.9429   -6.0864 C.3       4 UNK        -0.1981 
     24 N          23.2821   -1.6102   -4.2153 N.am      4 UNK        -0.4209 
     25 C          22.3238   -1.5229   -3.2797 C.2       3 UNK         0.4942 
     26 O          21.1186   -1.4871   -3.5326 O.2       3 UNK        -0.5208 
     27 CA         22.7663   -1.4576   -1.8057 C.3       3 UNK         0.0250 
     28 CB         22.8085   -2.8692   -1.1976 C.3       3 UNK        -0.1990 
     29 N          24.0615   -0.8084   -1.5993 N.am      3 UNK        -0.4232 
     30 C          24.3452    0.4692   -1.8879 C.2       2 UNK         0.4993 
     31 O          23.5167    1.2739   -2.3144 O.2       2 UNK        -0.5286 
     32 CA         25.7963    0.9374   -1.6728 C.3       2 UNK         0.0209 
     33 CB         25.8891    1.8404   -0.4316 C.3       2 UNK        -0.1931 
     34 N          26.7982   -0.1305   -1.5535 N.am      2 UNK        -0.4546 
     35 C          27.0839   -1.0807   -2.4586 C.2       1 UNK         0.5154 
     36 O          26.4773   -1.2148   -3.5234 O.2       1 UNK        -0.5181 
     37 C          27.3876   -1.1418   -7.0797 C.2       5 UNK         0.5014 
     38 O          28.0442   -1.0022   -8.1124 O.2       5 UNK        -0.5248 
     39 N          27.2848   -0.1971   -6.1325 N.am      6 UNK        -0.4434 
     40 CA         27.8863    1.1409   -6.1861 C.3       6 UNK         0.0363 
     41 CB         27.5415    1.9098   -4.9046 C.3       6 UNK        -0.1936 
     42 C          27.5064    1.9780   -7.4229 C.2       6 UNK         0.5081 
     43 O          28.2455    2.9022   -7.7603 O.2       6 UNK        -0.5248 
     44 N          26.4146    1.6215   -8.1186 N.am      7 UNK        -0.4718 
     45 CA         26.0365    2.1676   -9.4275 C.3       7 UNK         0.0273 
     46 CB         24.6850    1.5721   -9.8513 C.3       7 UNK        -0.1935 
     47 C          27.0925    1.9448  -10.5315 C.2       7 UNK         0.5018 
     48 O          27.1038    2.6982  -11.5053 O.2       7 UNK        -0.5186 
     49 N          27.9789    0.9514  -10.3544 N.am      8 UNK        -0.4240 
     50 CA         29.1520    0.7173  -11.2013 C.3       8 UNK         0.0235 
     51 CB         29.6482   -0.7226  -10.9846 C.3       8 UNK        -0.2000 
     52 C          30.3008    1.7175  -10.9579 C.2       8 UNK         0.4941 
     53 O          31.2705    1.6954  -11.7173 O.2       8 UNK        -0.5273 
     54 N          30.2099    2.5450   -9.9030 N.am      9 UNK        -0.4262 
     55 CA         31.1476    3.5841   -9.4497 C.3       9 UNK         0.0264 
     56 CB         31.3563    4.6691  -10.5238 C.3       9 UNK        -0.1955 
     57 C          32.4945    3.0588   -8.9222 C.2       9 UNK         0.5031 
     58 O          32.9559    3.5334   -7.8833 O.2       9 UNK        -0.5390 
     59 N          33.0903    2.0824   -9.6185 N.am      10 UNK        -0.4204 
     60 CA         34.3849    1.4605   -9.3158 C.3       10 UNK         0.0237 
     61 CB         34.7150    0.4347  -10.4123 C.3       10 UNK        -0.1985 
     62 C          34.4749    0.8049   -7.9251 C.2       10 UNK         0.4970 
     63 O          35.5706    0.7308   -7.3674 O.2       10 UNK        -0.4914 
     64 N          33.3326    0.3562   -7.3911 N.am      11 UNK        -0.4285 
     65 CA         33.1980   -0.1888   -6.0321 C.3       11 UNK         0.1007 
     66 C          33.2654    0.8821   -4.9035 C.2       11 UNK         0.5703 
     67 N          33.1866    2.1764   -5.1967 N.am      11 UNK        -0.7361 
     68 O          33.4255    0.5299   -3.7378 O.2       11 UNK        -0.4986 
     69 C69        31.9339   -1.0772   -5.8962 C.3       12 UNK        -0.0947 
     70 S70        31.9433   -2.4608   -7.0857 S.3       12 UNK        -0.2240 
     71 C71        32.5312   -3.8344   -6.0442 C.3       12 UNK         0.0194 
     72 H72        31.0790   -0.2464    0.1011 H         1 UNK         0.0906 
     73 H73        31.0553    1.2221   -0.8792 H         1 UNK         0.0906 
     74 H74        32.1622   -0.0911   -1.2844 H         1 UNK         0.0906 
     75 H75        29.3689   -1.6402   -0.3515 H         1 UNK         0.3140 
     76 H76        28.6648   -2.4045   -3.0202 H         1 UNK         0.1085 
     77 H77        26.9397   -3.7962   -1.9804 H         1 UNK         0.0836 
     78 H78        27.0305   -2.9242   -0.4818 H         1 UNK         0.0836 
     79 H79        30.8271   -3.4439   -1.3063 H         1 UNK         0.0731 
     80 H80        31.0421   -5.1467   -1.0703 H         1 UNK         0.0731 
     81 H81        32.1848   -3.6152   -3.3377 H         1 UNK         0.1312 
     82 H82        30.3856   -5.2672   -6.8524 H         1 UNK         0.1406 
     83 H83        28.4757   -5.7711   -3.0563 H         1 UNK         0.1631 
     84 H84        27.8120   -7.1335   -5.1667 H         1 UNK         0.0717 
     85 H85        28.3830   -6.5603   -6.7148 H         1 UNK         0.0717 
     86 H86        27.9612   -3.1122   -5.3000 H         1 UNK         0.0934 
     87 H87        28.3474   -3.7045   -6.8994 H         1 UNK         0.0934 
     88 H88        26.3176   -2.8105   -7.8557 H         1 UNK         0.0739 
     89 H89        25.2019   -2.9430   -5.3744 H         1 UNK         0.3093 
     90 H90        22.3847   -0.7949   -5.9068 H         1 UNK         0.0818 
     91 H91        22.2194   -2.9981   -7.1718 H         1 UNK         0.0819 
     92 H92        22.8612   -3.8298   -5.7618 H         1 UNK         0.0819 
     93 H93        21.3074   -3.0053   -5.6786 H         1 UNK         0.0819 
     94 H94        24.2517   -1.5589   -3.9235 H         1 UNK         0.3041 
     95 H95        22.0168   -0.8743   -1.2663 H         1 UNK         0.0784 
     96 H96        21.8474   -3.3724   -1.3133 H         1 UNK         0.0793 
     97 H97        23.5630   -3.4943   -1.6773 H         1 UNK         0.0793 
     98 H98        23.0272   -2.8363   -0.1300 H         1 UNK         0.0793 
     99 H99        24.8061   -1.3838   -1.2365 H         1 UNK         0.3024 
    100 H100       26.0557    1.5381   -2.5433 H         1 UNK         0.1171 
    101 H101       25.1818    2.6688   -0.4947 H         1 UNK         0.0786 
    102 H102       25.6664    1.2913    0.4842 H         1 UNK         0.0786 
    103 H103       26.8833    2.2763   -0.3304 H         1 UNK         0.0786 
    104 H104       27.3660   -0.1111   -0.7186 H         1 UNK         0.2977 
    105 H105       26.7742   -0.4357   -5.2869 H         1 UNK         0.3127 
    106 H106       28.9689    1.0031   -6.2178 H         1 UNK         0.0770 
    107 H107       26.4638    2.0300   -4.7912 H         1 UNK         0.0814 
    108 H108       27.9831    2.9074   -4.9146 H         1 UNK         0.0814 
    109 H109       27.9311    1.3994   -4.0245 H         1 UNK         0.0814 
    110 H110       25.8527    0.8486   -7.7752 H         1 UNK         0.2983 
    111 H111       25.9166    3.2468   -9.3108 H         1 UNK         0.0947 
    112 H112       24.7424    0.4890   -9.9681 H         1 UNK         0.0806 
    113 H113       24.3546    1.9873  -10.8044 H         1 UNK         0.0806 
    114 H114       23.9083    1.7874   -9.1173 H         1 UNK         0.0806 
    115 H115       27.8936    0.3587   -9.5319 H         1 UNK         0.3000 
    116 H116       28.8489    0.8203  -12.2454 H         1 UNK         0.0850 
    117 H117       28.8557   -1.4486  -11.1667 H         1 UNK         0.0810 
    118 H118       30.0142   -0.8751   -9.9682 H         1 UNK         0.0810 
    119 H119       30.4678   -0.9614  -11.6637 H         1 UNK         0.0810 
    120 H120       29.3840    2.4673   -9.3159 H         1 UNK         0.3040 
    121 H121       30.6540    4.0624   -8.6020 H         1 UNK         0.0766 
    122 H122       31.8622    4.2806  -11.4081 H         1 UNK         0.0812 
    123 H123       31.9663    5.4861  -10.1362 H         1 UNK         0.0812 
    124 H124       30.4059    5.0975  -10.8424 H         1 UNK         0.0812 
    125 H125       32.6177    1.7838  -10.4704 H         1 UNK         0.3205 
    126 H126       35.1372    2.2511   -9.3471 H         1 UNK         0.0754 
    127 H127       35.6864   -0.0294  -10.2356 H         1 UNK         0.0769 
    128 H128       34.7557    0.9039  -11.3956 H         1 UNK         0.0769 
    129 H129       33.9731   -0.3641  -10.4523 H         1 UNK         0.0769 
    130 H130       32.4804    0.4470   -7.9217 H         1 UNK         0.2981 
    131 H131       34.0595   -0.8375   -5.8618 H         1 UNK         0.0541 
    132 H132       33.2447    2.8487   -4.4493 H         1 UNK         0.3459 
    133 H133       33.0935    2.4983   -6.1539 H         1 UNK         0.3459 
    134 H134       31.0318   -0.4871   -6.0661 H         1 UNK         0.0612 
    135 H135       31.8443   -1.4758   -4.8842 H         1 UNK         0.0612 
    136 H136       33.3714   -3.4999   -5.4336 H         1 UNK         0.0624 
    137 H137       32.9160   -4.6246   -6.6903 H         1 UNK         0.0624 
@<TRIPOS>BOND
     1    1    2 1    
     2    1   72 1    
     3    1   73 1    
     4    1   74 1    
     5    2    3 2    
     6    2    4 am   BACKBONE|DICT|INTERRES
     7    4    5 1    
     8    4   75 1    
     9    5    6 1    
    10    5   35 1    
    11    5   76 1    
    12    6    7 1    
    13    6   77 1    
    14    6   78 1    
    15    7    8 1    
    16    8    9 1    
    17    8   79 1    
    18    8   80 1    
    19    9   10 ar   
    20    9   14 ar   
    21   10   11 ar   
    22   10   81 1    
    23   11   12 ar   
    24   11   71 1    
    25   12   13 ar   
    26   12   82 1    
    27   13   14 ar   
    28   13   15 1    
    29   14   83 1    
    30   15   16 1    
    31   15   84 1    
    32   15   85 1    
    33   16   17 1    
    34   17   18 1    
    35   17   86 1    
    36   17   87 1    
    37   18   19 1    
    38   18   37 1    
    39   18   88 1    
    40   19   20 am   BACKBONE|DICT|INTERRES
    41   19   89 1    
    42   20   21 2    
    43   20   22 1    
    44   22   23 1    
    45   22   24 1    
    46   22   90 1    
    47   23   91 1    
    48   23   92 1    
    49   23   93 1    
    50   24   25 am   BACKBONE|DICT|INTERRES
    51   24   94 1    
    52   25   26 2    
    53   25   27 1    
    54   27   28 1    
    55   27   29 1    
    56   27   95 1    
    57   28   96 1    
    58   28   97 1    
    59   28   98 1    
    60   29   30 am   BACKBONE|DICT|INTERRES
    61   29   99 1    
    62   30   31 2    
    63   30   32 1    
    64   32   33 1    
    65   32   34 1    
    66   32  100 1    
    67   33  101 1    
    68   33  102 1    
    69   33  103 1    
    70   34   35 am   BACKBONE|DICT|INTERRES
    71   34  104 1    
    72   35   36 2    
    73   37   38 2    
    74   37   39 am   BACKBONE|DICT|INTERRES
    75   39   40 1    
    76   39  105 1    
    77   40   41 1    
    78   40   42 1    
    79   40  106 1    
    80   41  107 1    
    81   41  108 1    
    82   41  109 1    
    83   42   43 2    
    84   42   44 am   BACKBONE|DICT|INTERRES
    85   44   45 1    
    86   44  110 1    
    87   45   46 1    
    88   45   47 1    
    89   45  111 1    
    90   46  112 1    
    91   46  113 1    
    92   46  114 1    
    93   47   48 2    
    94   47   49 am   BACKBONE|DICT|INTERRES
    95   49   50 1    
    96   49  115 1    
    97   50   51 1    
    98   50   52 1    
    99   50  116 1    
   100   51  117 1    
   101   51  118 1    
   102   51  119 1    
   103   52   53 2    
   104   52   54 am   BACKBONE|DICT|INTERRES
   105   54   55 1    
   106   54  120 1    
   107   55   56 1    
   108   55   57 1    
   109   55  121 1    
   110   56  122 1    
   111   56  123 1    
   112   56  124 1    
   113   57   58 2    
   114   57   59 am   BACKBONE|DICT|INTERRES
   115   59   60 1    
   116   59  125 1    
   117   60   61 1    
   118   60   62 1    
   119   60  126 1    
   120   61  127 1    
   121   61  128 1    
   122   61  129 1    
   123   62   63 2    
   124   62   64 am   BACKBONE|DICT|INTERRES
   125   64   65 1    
   126   64  130 1    
   127   65   66 1    
   128   65   69 1    
   129   65  131 1    
   130   66   67 am   BACKBONE|DICT|INTERRES
   131   66   68 2    
   132   67  132 1    
   133   67  133 1    
   134   69   70 1    
   135   69  134 1    
   136   69  135 1    
   137   70   71 1    
   138   71  136 1    
   139   71  137 1    
@<TRIPOS>SUBSTRUCTURE
     1 UNK         1 GROUP             0       ****    0 ROOT    
