@<TRIPOS>MOLECULE
3R137
137   139    1
SMALL
USER_CHARGES


@<TRIPOS>ATOM
      1 CA         30.8512    0.1045   -1.3597 C.3       0 UNK        -0.2020 
      2 C          29.9124   -0.8956   -2.0166 C.2       0 UNK         0.4855 
      3 O          29.6570   -0.7902   -3.2144 O.2       0 UNK        -0.5197 
      4 N          29.3997   -1.8600   -1.2397 N.am      1 UNK        -0.4892 
      5 CA         28.5319   -2.9479   -1.7156 C.3       1 UNK         0.0835 
      6 C6         28.5184   -4.1622   -0.7449 C.3       12 UNK        -0.0855 
      7 S7         30.1647   -4.7151   -0.1747 S.3       12 UNK        -0.2931 
      8 C8         30.5781   -6.0192   -1.3771 C.3       12 UNK         0.0378 
      9 C9         30.9716   -5.4191   -2.7167 C.ar      12 UNK        -0.0802 
     10 C10        32.2167   -4.8028   -2.8645 C.ar      12 UNK        -0.0944 
     11 C11        32.5683   -4.1975   -4.0729 C.ar      12 UNK        -0.0787 
     12 C12        31.6635   -4.2080   -5.1399 C.ar      12 UNK        -0.0862 
     13 C13        30.4208   -4.8368   -5.0091 C.ar      12 UNK        -0.0733 
     14 C14        30.0888   -5.4561   -3.7991 C.ar      12 UNK        -0.0832 
     15 C15        29.4432   -4.8660   -6.1772 C.3       12 UNK         0.0240 
     16 S16        27.8165   -4.1756   -5.7345 S.3       12 UNK        -0.2522 
     17 C17        28.1257   -2.3760   -5.7557 C.3       12 UNK        -0.0967 
     18 CA         27.1696   -1.6665   -6.7395 C.3       5 UNK         0.0660 
     19 N          25.7667   -1.8099   -6.3481 N.am      5 UNK        -0.4015 
     20 C          24.7510   -1.9215   -7.2127 C.2       4 UNK         0.4946 
     21 O          24.8862   -1.9421   -8.4367 O.2       4 UNK        -0.5353 
     22 CA         23.3370   -2.0155   -6.6139 C.3       4 UNK         0.0277 
     23 CB         22.9914   -3.4755   -6.2787 C.3       4 UNK        -0.1981 
     24 N          23.1493   -1.1840   -5.4220 N.am      4 UNK        -0.4209 
     25 C          23.2330    0.1535   -5.4080 C.2       3 UNK         0.4942 
     26 O          23.4837    0.8373   -6.3997 O.2       3 UNK        -0.5208 
     27 CA         23.0351    0.8480   -4.0510 C.3       3 UNK         0.0250 
     28 CB         21.5384    1.0704   -3.7800 C.3       3 UNK        -0.1990 
     29 N          23.6416    0.1633   -2.9025 N.am      3 UNK        -0.4232 
     30 C          24.9136   -0.2501   -2.7953 C.2       2 UNK         0.4993 
     31 O          25.7295   -0.2014   -3.7195 O.2       2 UNK        -0.5286 
     32 CA         25.3375   -0.7599   -1.4028 C.3       2 UNK         0.0209 
     33 CB         24.2967   -1.7163   -0.7751 C.3       2 UNK        -0.1931 
     34 N          26.6764   -1.3646   -1.3780 N.am      2 UNK        -0.4546 
     35 C          27.0789   -2.4936   -1.9817 C.2       1 UNK         0.5154 
     36 O          26.3482   -3.1959   -2.6817 O.2       1 UNK        -0.5181 
     37 C          27.5229   -0.1805   -6.9176 C.2       5 UNK         0.5014 
     38 O          28.2606    0.1470   -7.8473 O.2       5 UNK        -0.5248 
     39 N          26.9636    0.7106   -6.0833 N.am      6 UNK        -0.4434 
     40 CA         27.1161    2.1666   -6.1984 C.3       6 UNK         0.0363 
     41 CB         26.4302    2.8632   -5.0160 C.3       6 UNK        -0.1936 
     42 C          26.6009    2.7290   -7.5358 C.2       6 UNK         0.5081 
     43 O          27.2187    3.6424   -8.0819 O.2       6 UNK        -0.5248 
     44 N          25.5350    2.1273   -8.0842 N.am      7 UNK        -0.4718 
     45 CA         25.0176    2.3910   -9.4326 C.3       7 UNK         0.0273 
     46 CB         23.7055    1.6151   -9.6288 C.3       7 UNK        -0.1935 
     47 C          26.0099    2.0585  -10.5664 C.2       7 UNK         0.5018 
     48 O          25.8893    2.6279  -11.6513 O.2       7 UNK        -0.5186 
     49 N          26.9803    1.1750  -10.2942 N.am      8 UNK        -0.4240 
     50 CA         28.0961    0.8288  -11.1773 C.3       8 UNK         0.0235 
     51 CB         28.2686   -0.7018  -11.1797 C.3       8 UNK        -0.2000 
     52 C          29.3965    1.5507  -10.7637 C.2       8 UNK         0.4941 
     53 O          30.4754    1.1187  -11.1705 O.2       8 UNK        -0.5273 
     54 N          29.2768    2.6294   -9.9721 N.am      9 UNK        -0.4262 
     55 CA         30.3421    3.4823   -9.4302 C.3       9 UNK         0.0264 
     56 CB         31.2142    4.0956  -10.5480 C.3       9 UNK        -0.1955 
     57 C          31.1706    2.8284   -8.3059 C.2       9 UNK         0.5031 
     58 O          32.2751    3.3001   -8.0280 O.2       9 UNK        -0.5390 
     59 N          30.6120    1.8020   -7.6457 N.am      10 UNK        -0.4204 
     60 CA         31.1721    1.0711   -6.5036 C.3       10 UNK         0.0237 
     61 CB         31.2801    1.9860   -5.2602 C.3       10 UNK        -0.1985 
     62 C          32.4746    0.3257   -6.8563 C.2       10 UNK         0.4970 
     63 O          32.6371   -0.1220   -7.9937 O.2       10 UNK        -0.4914 
     64 N          33.3462    0.1468   -5.8599 N.am      11 UNK        -0.4285 
     65 CA         34.6052   -0.5995   -5.9608 C.3       11 UNK         0.1007 
     66 C          35.6882    0.1670   -6.7651 C.2       11 UNK         0.5703 
     67 N          36.5098   -0.5389   -7.5305 N.am      11 UNK        -0.7361 
     68 O          35.8198    1.3856   -6.6657 O.2       11 UNK        -0.4986 
     69 C69        35.1358   -1.0101   -4.5608 C.3       12 UNK        -0.0947 
     70 S70        33.8690   -1.8371   -3.5409 S.3       12 UNK        -0.2240 
     71 C71        33.9212   -3.5221   -4.2181 C.3       12 UNK         0.0194 
     72 H72        30.4724    1.1176   -1.4923 H         1 UNK         0.0906 
     73 H73        31.8373    0.0463   -1.8199 H         1 UNK         0.0906 
     74 H74        30.9639   -0.0802   -0.2916 H         1 UNK         0.0906 
     75 H75        29.6718   -1.9183   -0.2682 H         1 UNK         0.3140 
     76 H76        28.9278   -3.2818   -2.6759 H         1 UNK         0.1085 
     77 H77        27.9439   -3.9192    0.1515 H         1 UNK         0.0836 
     78 H78        28.0012   -5.0064   -1.2053 H         1 UNK         0.0836 
     79 H79        31.4107   -6.6071   -0.9880 H         1 UNK         0.0731 
     80 H80        29.7398   -6.7096   -1.4824 H         1 UNK         0.0731 
     81 H81        32.9033   -4.7731   -2.0293 H         1 UNK         0.1312 
     82 H82        31.9299   -3.7283   -6.0720 H         1 UNK         0.1406 
     83 H83        29.1260   -5.9379   -3.6930 H         1 UNK         0.1631 
     84 H84        29.3077   -5.9021   -6.4900 H         1 UNK         0.0717 
     85 H85        29.8397   -4.3336   -7.0432 H         1 UNK         0.0717 
     86 H86        27.9848   -1.9885   -4.7471 H         1 UNK         0.0934 
     87 H87        29.1690   -2.1845   -6.0146 H         1 UNK         0.0934 
     88 H88        27.3129   -2.1339   -7.7167 H         1 UNK         0.0739 
     89 H89        25.5708   -1.7635   -5.3559 H         1 UNK         0.3093 
     90 H90        22.6366   -1.6637   -7.3746 H         1 UNK         0.0818 
     91 H91        23.1022   -4.1132   -7.1570 H         1 UNK         0.0819 
     92 H92        23.6427   -3.8773   -5.5011 H         1 UNK         0.0819 
     93 H93        21.9602   -3.5726   -5.9387 H         1 UNK         0.0819 
     94 H94        22.9509   -1.6606   -4.5543 H         1 UNK         0.3041 
     95 H95        23.5058    1.8290   -4.1174 H         1 UNK         0.0784 
     96 H96        21.0645    1.5943   -4.6117 H         1 UNK         0.0793 
     97 H97        21.0066    0.1279   -3.6434 H         1 UNK         0.0793 
     98 H98        21.3811    1.6777   -2.8883 H         1 UNK         0.0793 
     99 H99        23.0519    0.0743   -2.0877 H         1 UNK         0.3024 
    100 H100       25.4021    0.1255   -0.7681 H         1 UNK         0.1171 
    101 H101       23.3577   -1.2057   -0.5597 H         1 UNK         0.0786 
    102 H102       24.0681   -2.5570   -1.4313 H         1 UNK         0.0786 
    103 H103       24.6550   -2.1230    0.1708 H         1 UNK         0.0786 
    104 H104       27.3794   -0.8514   -0.8651 H         1 UNK         0.2977 
    105 H105       26.4139    0.3704   -5.2945 H         1 UNK         0.3127 
    106 H106       28.1835    2.3842   -6.1423 H         1 UNK         0.0770 
    107 H107       25.3499    2.7340   -5.0512 H         1 UNK         0.0814 
    108 H108       26.6290    3.9356   -5.0293 H         1 UNK         0.0814 
    109 H109       26.7882    2.4769   -4.0614 H         1 UNK         0.0814 
    110 H110       25.0302    1.4388   -7.5327 H         1 UNK         0.2983 
    111 H111       24.7993    3.4589   -9.4997 H         1 UNK         0.0947 
    112 H112       23.8543    0.5399   -9.5200 H         1 UNK         0.0806 
    113 H113       23.2892    1.7902  -10.6219 H         1 UNK         0.0806 
    114 H114       22.9513    1.9229   -8.9043 H         1 UNK         0.0806 
    115 H115       27.0335    0.7843   -9.3596 H         1 UNK         0.3000 
    116 H116       27.8729    1.1421  -12.1991 H         1 UNK         0.0850 
    117 H117       29.0282   -1.0103  -11.8991 H         1 UNK         0.0810 
    118 H118       27.3415   -1.2050  -11.4548 H         1 UNK         0.0810 
    119 H119       28.5753   -1.0761  -10.2026 H         1 UNK         0.0810 
    120 H120       28.3462    2.8841   -9.6578 H         1 UNK         0.3040 
    121 H121       29.8205    4.3111   -8.9493 H         1 UNK         0.0766 
    122 H122       31.8558    3.3501  -11.0183 H         1 UNK         0.0812 
    123 H123       31.8661    4.8746  -10.1509 H         1 UNK         0.0812 
    124 H124       30.6023    4.5533  -11.3251 H         1 UNK         0.0812 
    125 H125       29.7307    1.4289   -7.9878 H         1 UNK         0.3205 
    126 H126       30.4485    0.2915   -6.2637 H         1 UNK         0.0754 
    127 H127       31.4645    1.4064   -4.3548 H         1 UNK         0.0769 
    128 H128       30.3540    2.5349   -5.0920 H         1 UNK         0.0769 
    129 H129       32.0834    2.7170   -5.3601 H         1 UNK         0.0769 
    130 H130       33.1455    0.5489   -4.9574 H         1 UNK         0.2981 
    131 H131       34.3825   -1.5156   -6.5108 H         1 UNK         0.0541 
    132 H132       37.2304   -0.0589   -8.0466 H         1 UNK         0.3459 
    133 H133       36.4209   -1.5400   -7.6094 H         1 UNK         0.3459 
    134 H134       35.4790   -0.1317   -4.0111 H         1 UNK         0.0612 
    135 H135       36.0006   -1.6699   -4.6531 H         1 UNK         0.0612 
    136 H136       34.6901   -4.0954   -3.6981 H         1 UNK         0.0624 
    137 H137       34.2121   -3.5008   -5.2687 H         1 UNK         0.0624 
@<TRIPOS>BOND
     1    1    2 1    
     2    1   72 1    
     3    1   73 1    
     4    1   74 1    
     5    2    3 2    
     6    2    4 am   BACKBONE|DICT|INTERRES
     7    4    5 1    
     8    4   75 1    
     9    5    6 1    
    10    5   35 1    
    11    5   76 1    
    12    6    7 1    
    13    6   77 1    
    14    6   78 1    
    15    7    8 1    
    16    8    9 1    
    17    8   79 1    
    18    8   80 1    
    19    9   10 ar   
    20    9   14 ar   
    21   10   11 ar   
    22   10   81 1    
    23   11   12 ar   
    24   11   71 1    
    25   12   13 ar   
    26   12   82 1    
    27   13   14 ar   
    28   13   15 1    
    29   14   83 1    
    30   15   16 1    
    31   15   84 1    
    32   15   85 1    
    33   16   17 1    
    34   17   18 1    
    35   17   86 1    
    36   17   87 1    
    37   18   19 1    
    38   18   37 1    
    39   18   88 1    
    40   19   20 am   BACKBONE|DICT|INTERRES
    41   19   89 1    
    42   20   21 2    
    43   20   22 1    
    44   22   23 1    
    45   22   24 1    
    46   22   90 1    
    47   23   91 1    
    48   23   92 1    
    49   23   93 1    
    50   24   25 am   BACKBONE|DICT|INTERRES
    51   24   94 1    
    52   25   26 2    
    53   25   27 1    
    54   27   28 1    
    55   27   29 1    
    56   27   95 1    
    57   28   96 1    
    58   28   97 1    
    59   28   98 1    
    60   29   30 am   BACKBONE|DICT|INTERRES
    61   29   99 1    
    62   30   31 2    
    63   30   32 1    
    64   32   33 1    
    65   32   34 1    
    66   32  100 1    
    67   33  101 1    
    68   33  102 1    
    69   33  103 1    
    70   34   35 am   BACKBONE|DICT|INTERRES
    71   34  104 1    
    72   35   36 2    
    73   37   38 2    
    74   37   39 am   BACKBONE|DICT|INTERRES
    75   39   40 1    
    76   39  105 1    
    77   40   41 1    
    78   40   42 1    
    79   40  106 1    
    80   41  107 1    
    81   41  108 1    
    82   41  109 1    
    83   42   43 2    
    84   42   44 am   BACKBONE|DICT|INTERRES
    85   44   45 1    
    86   44  110 1    
    87   45   46 1    
    88   45   47 1    
    89   45  111 1    
    90   46  112 1    
    91   46  113 1    
    92   46  114 1    
    93   47   48 2    
    94   47   49 am   BACKBONE|DICT|INTERRES
    95   49   50 1    
    96   49  115 1    
    97   50   51 1    
    98   50   52 1    
    99   50  116 1    
   100   51  117 1    
   101   51  118 1    
   102   51  119 1    
   103   52   53 2    
   104   52   54 am   BACKBONE|DICT|INTERRES
   105   54   55 1    
   106   54  120 1    
   107   55   56 1    
   108   55   57 1    
   109   55  121 1    
   110   56  122 1    
   111   56  123 1    
   112   56  124 1    
   113   57   58 2    
   114   57   59 am   BACKBONE|DICT|INTERRES
   115   59   60 1    
   116   59  125 1    
   117   60   61 1    
   118   60   62 1    
   119   60  126 1    
   120   61  127 1    
   121   61  128 1    
   122   61  129 1    
   123   62   63 2    
   124   62   64 am   BACKBONE|DICT|INTERRES
   125   64   65 1    
   126   64  130 1    
   127   65   66 1    
   128   65   69 1    
   129   65  131 1    
   130   66   67 am   BACKBONE|DICT|INTERRES
   131   66   68 2    
   132   67  132 1    
   133   67  133 1    
   134   69   70 1    
   135   69  134 1    
   136   69  135 1    
   137   70   71 1    
   138   71  136 1    
   139   71  137 1    
@<TRIPOS>SUBSTRUCTURE
     1 UNK         1 GROUP             0       ****    0 ROOT    
