@<TRIPOS>MOLECULE
3R137
137   139    1
SMALL
USER_CHARGES


@<TRIPOS>ATOM
      1 CA         26.7666   -5.9512   -4.2714 C.3       0 UNK        -0.2020 
      2 C          26.4554   -5.7646   -2.7939 C.2       0 UNK         0.4855 
      3 O          25.3820   -6.1584   -2.3380 O.2       0 UNK        -0.5197 
      4 N          27.3877   -5.1657   -2.0421 N.am      1 UNK        -0.4892 
      5 CA         27.2504   -4.8478   -0.6136 C.3       1 UNK         0.0835 
      6 C6         28.6257   -4.5875    0.0565 C.3       12 UNK        -0.0855 
      7 S7         29.6560   -3.3637   -0.8306 S.3       12 UNK        -0.2931 
      8 C8         30.8919   -4.4558   -1.5985 C.3       12 UNK         0.0378 
      9 C9         31.5634   -3.7759   -2.7796 C.ar      12 UNK        -0.0802 
     10 C10        32.8240   -3.1908   -2.6399 C.ar      12 UNK        -0.0944 
     11 C11        33.4530   -2.5963   -3.7368 C.ar      12 UNK        -0.0787 
     12 C12        32.8029   -2.5830   -4.9760 C.ar      12 UNK        -0.0862 
     13 C13        31.5282   -3.1405   -5.1294 C.ar      12 UNK        -0.0733 
     14 C14        30.9234   -3.7488   -4.0217 C.ar      12 UNK        -0.0832 
     15 C15        30.8632   -3.0626   -6.5085 C.3       12 UNK         0.0240 
     16 S16        29.1622   -3.7225   -6.6344 S.3       12 UNK        -0.2522 
     17 C17        28.1853   -2.4504   -5.7627 C.3       12 UNK        -0.0967 
     18 CA         27.4070   -1.5340   -6.7435 C.3       5 UNK         0.0660 
     19 N          26.0976   -1.1410   -6.2113 N.am      5 UNK        -0.4015 
     20 C          25.1118   -0.6170   -6.9583 C.2       4 UNK         0.4946 
     21 O          25.1963   -0.4499   -8.1737 O.2       4 UNK        -0.5353 
     22 CA         23.8340   -0.1502   -6.2356 C.3       4 UNK         0.0277 
     23 CB         22.8226   -1.3031   -6.1369 C.3       4 UNK        -0.1981 
     24 N          24.0885    0.3905   -4.8996 N.am      4 UNK        -0.4209 
     25 C          24.9028    1.4206   -4.6299 C.2       3 UNK         0.4942 
     26 O          25.4236    2.1164   -5.5003 O.2       3 UNK        -0.5208 
     27 CA         25.2539    1.6835   -3.1534 C.3       3 UNK         0.0250 
     28 CB         24.4902    2.9120   -2.6343 C.3       3 UNK        -0.1990 
     29 N          25.0207    0.5488   -2.2485 N.am      3 UNK        -0.4232 
     30 C          25.5627   -0.6732   -2.3575 C.2       2 UNK         0.4993 
     31 O          26.3139   -1.0202   -3.2764 O.2       2 UNK        -0.5286 
     32 CA         25.1271   -1.6935   -1.3019 C.3       2 UNK         0.0209 
     33 CB         23.6855   -2.1722   -1.5646 C.3       2 UNK        -0.1931 
     34 N          26.0367   -2.8317   -1.3436 N.am      2 UNK        -0.4546 
     35 C          26.2585   -3.6942   -0.3450 C.2       1 UNK         0.5154 
     36 O          25.7084   -3.6157    0.7552 O.2       1 UNK        -0.5181 
     37 C          28.2375   -0.3029   -7.1617 C.2       5 UNK         0.5014 
     38 O          28.8959   -0.3356   -8.2022 O.2       5 UNK        -0.5248 
     39 N          28.1588    0.7759   -6.3672 N.am      6 UNK        -0.4434 
     40 CA         28.7953    2.0618   -6.6586 C.3       6 UNK         0.0363 
     41 CB         28.7800    2.9570   -5.4089 C.3       6 UNK        -0.1936 
     42 C          28.1548    2.7780   -7.8576 C.2       6 UNK         0.5081 
     43 O          28.8692    3.4211   -8.6244 O.2       6 UNK        -0.5248 
     44 N          26.8302    2.6434   -8.0068 N.am      7 UNK        -0.4718 
     45 CA         26.0723    3.1413   -9.1545 C.3       7 UNK         0.0273 
     46 CB         24.5702    3.1181   -8.8293 C.3       7 UNK        -0.1935 
     47 C          26.3681    2.3515  -10.4414 C.2       7 UNK         0.5018 
     48 O          26.5379    2.9648  -11.4959 O.2       7 UNK        -0.5186 
     49 N          26.4176    1.0150  -10.3375 N.am      8 UNK        -0.4240 
     50 CA         26.6884    0.1068  -11.4547 C.3       8 UNK         0.0235 
     51 CB         26.3225   -1.3317  -11.0541 C.3       8 UNK        -0.2000 
     52 C          28.1406    0.1664  -11.9540 C.2       8 UNK         0.4941 
     53 O          28.3571    0.1168  -13.1661 O.2       8 UNK        -0.5273 
     54 N          29.0995    0.2509  -11.0247 N.am      9 UNK        -0.4262 
     55 CA         30.5318    0.2706  -11.3010 C.3       9 UNK         0.0264 
     56 CB         31.1324   -1.1129  -10.9710 C.3       9 UNK        -0.1955 
     57 C          31.1717    1.4294  -10.5260 C.2       9 UNK         0.5031 
     58 O          31.1687    2.5577  -11.0203 O.2       9 UNK        -0.5390 
     59 N          31.7195    1.1296   -9.3456 N.am      10 UNK        -0.4204 
     60 CA         32.4037    2.0324   -8.4262 C.3       10 UNK         0.0237 
     61 CB         33.7721    2.4539   -8.9985 C.3       10 UNK        -0.1985 
     62 C          32.5771    1.2814   -7.1009 C.2       10 UNK         0.4970 
     63 O          32.4116    0.0587   -7.0776 O.2       10 UNK        -0.4914 
     64 N          32.9023    2.0150   -6.0287 N.am      11 UNK        -0.4285 
     65 CA         33.1756    1.5196   -4.6642 C.3       11 UNK         0.1007 
     66 C          31.9289    0.9601   -3.9102 C.2       11 UNK         0.5703 
     67 N          31.0381    0.2275   -4.5610 N.am      11 UNK        -0.7361 
     68 O          31.7456    1.2419   -2.7283 O.2       11 UNK        -0.4986 
     69 C69        34.4334    0.5943   -4.6339 C.3       12 UNK        -0.0947 
     70 S70        34.8105   -0.2548   -3.0596 S.3       12 UNK        -0.2240 
     71 C71        34.8471   -2.0016   -3.5815 C.3       12 UNK         0.0194 
     72 H72        27.7934   -5.6770   -4.5115 H         1 UNK         0.0906 
     73 H73        26.6223   -6.9929   -4.5568 H         1 UNK         0.0906 
     74 H74        26.0998   -5.3372   -4.8764 H         1 UNK         0.0906 
     75 H75        28.2485   -4.8494   -2.4629 H         1 UNK         0.3140 
     76 H76        26.8169   -5.7251   -0.1274 H         1 UNK         0.1085 
     77 H77        28.4974   -4.2510    1.0875 H         1 UNK         0.0836 
     78 H78        29.1721   -5.5287    0.1345 H         1 UNK         0.0836 
     79 H79        31.6293   -4.7474   -0.8488 H         1 UNK         0.0731 
     80 H80        30.4196   -5.3789   -1.9381 H         1 UNK         0.0731 
     81 H81        33.3215   -3.2070   -1.6797 H         1 UNK         0.1312 
     82 H82        33.2866   -2.1288   -5.8294 H         1 UNK         0.1406 
     83 H83        29.9498   -4.2050   -4.1112 H         1 UNK         0.1631 
     84 H84        31.4857   -3.6083   -7.2186 H         1 UNK         0.0717 
     85 H85        30.8521   -2.0267   -6.8469 H         1 UNK         0.0717 
     86 H86        27.4857   -2.9931   -5.1253 H         1 UNK         0.0934 
     87 H87        28.8136   -1.8810   -5.0747 H         1 UNK         0.0934 
     88 H88        27.2040   -2.1020   -7.6544 H         1 UNK         0.0739 
     89 H89        25.9835   -1.1982   -5.2029 H         1 UNK         0.3093 
     90 H90        23.3894    0.6475   -6.8337 H         1 UNK         0.0818 
     91 H91        21.8780   -0.9677   -5.7083 H         1 UNK         0.0819 
     92 H92        22.6008   -1.7114   -7.1241 H         1 UNK         0.0819 
     93 H93        23.1995   -2.1221   -5.5227 H         1 UNK         0.0819 
     94 H94        23.6945   -0.1160   -4.1210 H         1 UNK         0.3041 
     95 H95        26.3223    1.9070   -3.1200 H         1 UNK         0.0784 
     96 H96        24.6676    3.7802   -3.2710 H         1 UNK         0.0793 
     97 H97        23.4134    2.7389   -2.6125 H         1 UNK         0.0793 
     98 H98        24.8089    3.1829   -1.6275 H         1 UNK         0.0793 
     99 H99        24.4001    0.7280   -1.4715 H         1 UNK         0.3024 
    100 H100       25.1903   -1.2198   -0.3193 H         1 UNK         0.1171 
    101 H101       22.9778   -1.3430   -1.5371 H         1 UNK         0.0786 
    102 H102       23.3624   -2.8907   -0.8110 H         1 UNK         0.0786 
    103 H103       23.5932   -2.6519   -2.5400 H         1 UNK         0.0786 
    104 H104       26.5701   -2.9128   -2.1999 H         1 UNK         0.2977 
    105 H105       27.5588    0.7407   -5.5562 H         1 UNK         0.3127 
    106 H106       29.8340    1.8616   -6.9159 H         1 UNK         0.0770 
    107 H107       27.7675    3.2373   -5.1193 H         1 UNK         0.0814 
    108 H108       29.3306    3.8808   -5.5905 H         1 UNK         0.0814 
    109 H109       29.2479    2.4650   -4.5568 H         1 UNK         0.0814 
    110 H110       26.3064    2.1822   -7.2686 H         1 UNK         0.2983 
    111 H111       26.3657    4.1793   -9.3271 H         1 UNK         0.0947 
    112 H112       24.2077    2.1039   -8.6616 H         1 UNK         0.0806 
    113 H113       24.3482    3.7040   -7.9370 H         1 UNK         0.0806 
    114 H114       23.9881    3.5404   -9.6495 H         1 UNK         0.0806 
    115 H115       26.1875    0.5825   -9.4460 H         1 UNK         0.3000 
    116 H116       26.0428    0.3990  -12.2858 H         1 UNK         0.0850 
    117 H117       26.5072   -2.0264  -11.8746 H         1 UNK         0.0810 
    118 H118       25.2676   -1.4135  -10.7918 H         1 UNK         0.0810 
    119 H119       26.9071   -1.6723  -10.1984 H         1 UNK         0.0810 
    120 H120       28.8414    0.2635  -10.0403 H         1 UNK         0.3040 
    121 H121       30.7160    0.4721  -12.3584 H         1 UNK         0.0766 
    122 H122       32.2180   -1.1085  -11.0781 H         1 UNK         0.0812 
    123 H123       30.7472   -1.8733  -11.6506 H         1 UNK         0.0812 
    124 H124       30.8961   -1.4357   -9.9559 H         1 UNK         0.0812 
    125 H125       31.6348    0.1862   -8.9825 H         1 UNK         0.3205 
    126 H126       31.7767    2.9107   -8.2597 H         1 UNK         0.0754 
    127 H127       34.3051    3.1089   -8.3084 H         1 UNK         0.0769 
    128 H128       33.6640    3.0002   -9.9354 H         1 UNK         0.0769 
    129 H129       34.4105    1.5899   -9.1882 H         1 UNK         0.0769 
    130 H130       32.9831    3.0153   -6.1403 H         1 UNK         0.2981 
    131 H131       33.4522    2.4151   -4.1058 H         1 UNK         0.0541 
    132 H132       31.2335   -0.0380   -5.5181 H         1 UNK         0.3459 
    133 H133       30.2429   -0.1371   -4.0658 H         1 UNK         0.3459 
    134 H134       35.3113    1.1852   -4.8980 H         1 UNK         0.0612 
    135 H135       34.3640   -0.1613   -5.4135 H         1 UNK         0.0612 
    136 H136       35.4110   -2.0991   -4.5105 H         1 UNK         0.0624 
    137 H137       35.4034   -2.5707   -2.8352 H         1 UNK         0.0624 
@<TRIPOS>BOND
     1    1    2 1    
     2    1   72 1    
     3    1   73 1    
     4    1   74 1    
     5    2    3 2    
     6    2    4 am   BACKBONE|DICT|INTERRES
     7    4    5 1    
     8    4   75 1    
     9    5    6 1    
    10    5   35 1    
    11    5   76 1    
    12    6    7 1    
    13    6   77 1    
    14    6   78 1    
    15    7    8 1    
    16    8    9 1    
    17    8   79 1    
    18    8   80 1    
    19    9   10 ar   
    20    9   14 ar   
    21   10   11 ar   
    22   10   81 1    
    23   11   12 ar   
    24   11   71 1    
    25   12   13 ar   
    26   12   82 1    
    27   13   14 ar   
    28   13   15 1    
    29   14   83 1    
    30   15   16 1    
    31   15   84 1    
    32   15   85 1    
    33   16   17 1    
    34   17   18 1    
    35   17   86 1    
    36   17   87 1    
    37   18   19 1    
    38   18   37 1    
    39   18   88 1    
    40   19   20 am   BACKBONE|DICT|INTERRES
    41   19   89 1    
    42   20   21 2    
    43   20   22 1    
    44   22   23 1    
    45   22   24 1    
    46   22   90 1    
    47   23   91 1    
    48   23   92 1    
    49   23   93 1    
    50   24   25 am   BACKBONE|DICT|INTERRES
    51   24   94 1    
    52   25   26 2    
    53   25   27 1    
    54   27   28 1    
    55   27   29 1    
    56   27   95 1    
    57   28   96 1    
    58   28   97 1    
    59   28   98 1    
    60   29   30 am   BACKBONE|DICT|INTERRES
    61   29   99 1    
    62   30   31 2    
    63   30   32 1    
    64   32   33 1    
    65   32   34 1    
    66   32  100 1    
    67   33  101 1    
    68   33  102 1    
    69   33  103 1    
    70   34   35 am   BACKBONE|DICT|INTERRES
    71   34  104 1    
    72   35   36 2    
    73   37   38 2    
    74   37   39 am   BACKBONE|DICT|INTERRES
    75   39   40 1    
    76   39  105 1    
    77   40   41 1    
    78   40   42 1    
    79   40  106 1    
    80   41  107 1    
    81   41  108 1    
    82   41  109 1    
    83   42   43 2    
    84   42   44 am   BACKBONE|DICT|INTERRES
    85   44   45 1    
    86   44  110 1    
    87   45   46 1    
    88   45   47 1    
    89   45  111 1    
    90   46  112 1    
    91   46  113 1    
    92   46  114 1    
    93   47   48 2    
    94   47   49 am   BACKBONE|DICT|INTERRES
    95   49   50 1    
    96   49  115 1    
    97   50   51 1    
    98   50   52 1    
    99   50  116 1    
   100   51  117 1    
   101   51  118 1    
   102   51  119 1    
   103   52   53 2    
   104   52   54 am   BACKBONE|DICT|INTERRES
   105   54   55 1    
   106   54  120 1    
   107   55   56 1    
   108   55   57 1    
   109   55  121 1    
   110   56  122 1    
   111   56  123 1    
   112   56  124 1    
   113   57   58 2    
   114   57   59 am   BACKBONE|DICT|INTERRES
   115   59   60 1    
   116   59  125 1    
   117   60   61 1    
   118   60   62 1    
   119   60  126 1    
   120   61  127 1    
   121   61  128 1    
   122   61  129 1    
   123   62   63 2    
   124   62   64 am   BACKBONE|DICT|INTERRES
   125   64   65 1    
   126   64  130 1    
   127   65   66 1    
   128   65   69 1    
   129   65  131 1    
   130   66   67 am   BACKBONE|DICT|INTERRES
   131   66   68 2    
   132   67  132 1    
   133   67  133 1    
   134   69   70 1    
   135   69  134 1    
   136   69  135 1    
   137   70   71 1    
   138   71  136 1    
   139   71  137 1    
@<TRIPOS>SUBSTRUCTURE
     1 UNK         1 GROUP             0       ****    0 ROOT    
