@<TRIPOS>MOLECULE
3R137
137   139    1
SMALL
USER_CHARGES


@<TRIPOS>ATOM
      1 CA         23.8857   -5.8135   -6.5674 C.3       0 UNK        -0.2020 
      2 C          24.8809   -5.5406   -5.4501 C.2       0 UNK         0.4855 
      3 O          24.5091   -5.5859   -4.2768 O.2       0 UNK        -0.5197 
      4 N          26.1393   -5.2517   -5.8120 N.am      1 UNK        -0.4892 
      5 CA         27.2566   -4.9080   -4.9220 C.3       1 UNK         0.0835 
      6 C6         28.5421   -4.6563   -5.7600 C.3       12 UNK        -0.0855 
      7 S7         29.9671   -4.0002   -4.8214 S.3       12 UNK        -0.2931 
      8 C8         29.9772   -2.2787   -5.4147 C.3       12 UNK         0.0378 
      9 C9         30.5637   -1.3388   -4.3793 C.ar      12 UNK        -0.0802 
     10 C10        31.9042   -0.9499   -4.4512 C.ar      12 UNK        -0.0944 
     11 C11        32.4463   -0.0742   -3.5007 C.ar      12 UNK        -0.0787 
     12 C12        31.6160    0.4136   -2.4845 C.ar      12 UNK        -0.0862 
     13 C13        30.2755    0.0235   -2.3969 C.ar      12 UNK        -0.0733 
     14 C14        29.7551   -0.8546   -3.3490 C.ar      12 UNK        -0.0832 
     15 C15        29.4040    0.5268   -1.2550 C.3       12 UNK         0.0240 
     16 S16        28.4920    2.0362   -1.7076 S.3       12 UNK        -0.2522 
     17 C17        26.9848    1.3767   -2.5043 C.3       12 UNK        -0.0967 
     18 CA         27.0008    1.4364   -4.0528 C.3       5 UNK         0.0660 
     19 N          25.9710    0.5527   -4.6215 N.am      5 UNK        -0.4015 
     20 C          25.8421    0.2385   -5.9206 C.2       4 UNK         0.4946 
     21 O          26.5860    0.6879   -6.7932 O.2       4 UNK        -0.5353 
     22 CA         24.6958   -0.7063   -6.3272 C.3       4 UNK         0.0277 
     23 CB         25.1278   -1.6593   -7.4570 C.3       4 UNK        -0.1981 
     24 N          24.2350   -1.5052   -5.1927 N.am      4 UNK        -0.4209 
     25 C          23.0234   -1.4494   -4.6225 C.2       3 UNK         0.4942 
     26 O          22.1239   -0.7022   -5.0078 O.2       3 UNK        -0.5208 
     27 CA         22.7591   -2.3719   -3.4142 C.3       3 UNK         0.0250 
     28 CB         21.7807   -3.4962   -3.7912 C.3       3 UNK        -0.1990 
     29 N          23.9799   -2.9595   -2.8513 N.am      3 UNK        -0.4232 
     30 C          24.8641   -2.2789   -2.1062 C.2       2 UNK         0.4993 
     31 O          24.6995   -1.1094   -1.7599 O.2       2 UNK        -0.5286 
     32 CA         26.1806   -2.9895   -1.7365 C.3       2 UNK         0.0209 
     33 CB         26.0622   -3.6587   -0.3585 C.3       2 UNK        -0.1931 
     34 N          26.6278   -3.9802   -2.7235 N.am      2 UNK        -0.4546 
     35 C          26.8781   -3.7167   -4.0142 C.2       1 UNK         0.5154 
     36 O          26.7637   -2.5953   -4.5082 O.2       1 UNK        -0.5181 
     37 C          26.9303    2.8864   -4.5914 C.2       5 UNK         0.5014 
     38 O          27.9562    3.5653   -4.6344 O.2       5 UNK        -0.5248 
     39 N          25.7446    3.3216   -5.0469 N.am      6 UNK        -0.4434 
     40 CA         25.5388    4.5940   -5.7472 C.3       6 UNK         0.0363 
     41 CB         24.0326    4.8343   -5.9376 C.3       6 UNK        -0.1936 
     42 C          26.2732    4.6695   -7.1010 C.2       6 UNK         0.5081 
     43 O          26.7232    5.7508   -7.4809 O.2       6 UNK        -0.5248 
     44 N          26.3932    3.5274   -7.7926 N.am      7 UNK        -0.4718 
     45 CA         27.1941    3.3748   -9.0102 C.3       7 UNK         0.0273 
     46 CB         26.5154    2.3475   -9.9322 C.3       7 UNK        -0.1935 
     47 C          28.6330    2.9320   -8.6928 C.2       7 UNK         0.5018 
     48 O          29.5402    3.2485   -9.4625 O.2       7 UNK        -0.5186 
     49 N          28.7981    2.1984   -7.5808 N.am      8 UNK        -0.4240 
     50 CA         30.0095    1.5284   -7.0999 C.3       8 UNK         0.0235 
     51 CB         31.1192    2.5432   -6.7605 C.3       8 UNK        -0.2000 
     52 C          30.4526    0.4327   -8.0828 C.2       8 UNK         0.4941 
     53 O          31.6181    0.3891   -8.4850 O.2       8 UNK        -0.5273 
     54 N          29.4931   -0.4250   -8.4642 N.am      9 UNK        -0.4262 
     55 CA         29.5735   -1.4573   -9.5083 C.3       9 UNK         0.0264 
     56 CB         28.1438   -1.9393   -9.8189 C.3       9 UNK        -0.1955 
     57 C          30.5379   -2.6317   -9.2156 C.2       9 UNK         0.5031 
     58 O          30.1576   -3.7950   -9.3577 O.2       9 UNK        -0.5390 
     59 N          31.7712   -2.2987   -8.8310 N.am      10 UNK        -0.4204 
     60 CA         32.9135   -3.1824   -8.6006 C.3       10 UNK         0.0237 
     61 CB         32.7074   -4.0917   -7.3724 C.3       10 UNK        -0.1985 
     62 C          34.1824   -2.3365   -8.4376 C.2       10 UNK         0.4970 
     63 O          35.2099   -2.6685   -9.0291 O.2       10 UNK        -0.4914 
     64 N          34.0812   -1.2540   -7.6539 N.am      11 UNK        -0.4285 
     65 CA         35.1503   -0.2675   -7.4468 C.3       11 UNK         0.1007 
     66 C          35.3276    0.7030   -8.6471 C.2       11 UNK         0.5703 
     67 N          34.2720    1.0458   -9.3765 N.am      11 UNK        -0.7361 
     68 O          36.4408    1.1440   -8.9228 O.2       11 UNK        -0.4986 
     69 C69        34.9512    0.5268   -6.1307 C.3       12 UNK        -0.0947 
     70 S70        35.0279   -0.5296   -4.6464 S.3       12 UNK        -0.2240 
     71 C71        33.9145    0.3644   -3.5035 C.3       12 UNK         0.0194 
     72 H72        23.2996   -6.7036   -6.3400 H         1 UNK         0.0906 
     73 H73        23.2018   -4.9723   -6.6753 H         1 UNK         0.0906 
     74 H74        24.3821   -5.9731   -7.5244 H         1 UNK         0.0906 
     75 H75        26.3587   -5.2283   -6.7975 H         1 UNK         0.3140 
     76 H76        27.4425   -5.7728   -4.2818 H         1 UNK         0.1085 
     77 H77        28.3251   -3.9824   -6.5913 H         1 UNK         0.0836 
     78 H78        28.8590   -5.5911   -6.2253 H         1 UNK         0.0836 
     79 H79        28.9694   -1.9459   -5.6650 H         1 UNK         0.0731 
     80 H80        30.5477   -2.2277   -6.3392 H         1 UNK         0.0731 
     81 H81        32.5187   -1.3471   -5.2434 H         1 UNK         0.1312 
     82 H82        32.0212    1.0903   -1.7441 H         1 UNK         0.1406 
     83 H83        28.7211   -1.1663   -3.2903 H         1 UNK         0.1631 
     84 H84        30.0300    0.7521   -0.3903 H         1 UNK         0.0717 
     85 H85        28.7151   -0.2519   -0.9251 H         1 UNK         0.0717 
     86 H86        26.8579    0.3452   -2.1768 H         1 UNK         0.0934 
     87 H87        26.1204    1.9133   -2.1084 H         1 UNK         0.0934 
     88 H88        27.9577    1.0364   -4.3915 H         1 UNK         0.0739 
     89 H89        25.3255    0.1362   -3.9651 H         1 UNK         0.3093 
     90 H90        23.8882   -0.0754   -6.7031 H         1 UNK         0.0818 
     91 H91        25.9785   -2.2731   -7.1589 H         1 UNK         0.0819 
     92 H92        24.3162   -2.3284   -7.7426 H         1 UNK         0.0819 
     93 H93        25.4178   -1.1056   -8.3508 H         1 UNK         0.0819 
     94 H94        24.9474   -2.1087   -4.7894 H         1 UNK         0.3041 
     95 H95        22.2858   -1.7616   -2.6419 H         1 UNK         0.0784 
     96 H96        20.8357   -3.0871   -4.1513 H         1 UNK         0.0793 
     97 H97        22.1795   -4.1334   -4.5799 H         1 UNK         0.0793 
     98 H98        21.5525   -4.1285   -2.9330 H         1 UNK         0.0793 
     99 H99        24.1992   -3.9125   -3.1284 H         1 UNK         0.3024 
    100 H100       26.9522   -2.2194   -1.6769 H         1 UNK         0.1171 
    101 H101       27.0164   -4.0759   -0.0358 H         1 UNK         0.0786 
    102 H102       25.7534   -2.9381    0.4004 H         1 UNK         0.0786 
    103 H103       25.3262   -4.4638   -0.3624 H         1 UNK         0.0786 
    104 H104       26.6982   -4.9353   -2.4021 H         1 UNK         0.2977 
    105 H105       24.9435    2.7133   -4.9628 H         1 UNK         0.3127 
    106 H106       25.9352    5.3908   -5.1140 H         1 UNK         0.0770 
    107 H107       23.5716    4.0565   -6.5476 H         1 UNK         0.0814 
    108 H108       23.8512    5.7880   -6.4355 H         1 UNK         0.0814 
    109 H109       23.5108    4.8669   -4.9810 H         1 UNK         0.0814 
    110 H110       26.0196    2.6749   -7.3945 H         1 UNK         0.2983 
    111 H111       27.2474    4.3278   -9.5416 H         1 UNK         0.0947 
    112 H112       27.0816    2.2190  -10.8558 H         1 UNK         0.0806 
    113 H113       25.5113    2.6678  -10.2102 H         1 UNK         0.0806 
    114 H114       26.4359    1.3672   -9.4606 H         1 UNK         0.0806 
    115 H115       27.9472    1.9281   -7.0960 H         1 UNK         0.3000 
    116 H116       29.7350    1.0232   -6.1728 H         1 UNK         0.0850 
    117 H117       31.9423    2.0524   -6.2433 H         1 UNK         0.0810 
    118 H118       30.7470    3.3273   -6.1010 H         1 UNK         0.0810 
    119 H119       31.5281    3.0178   -7.6531 H         1 UNK         0.0810 
    120 H120       28.5765   -0.2933   -8.0569 H         1 UNK         0.3040 
    121 H121       29.9551   -0.9705  -10.4082 H         1 UNK         0.0766 
    122 H122       27.4907   -1.1086  -10.0872 H         1 UNK         0.0812 
    123 H123       27.7020   -2.4554   -8.9661 H         1 UNK         0.0812 
    124 H124       28.1372   -2.6348  -10.6593 H         1 UNK         0.0812 
    125 H125       31.9586   -1.2966   -8.7813 H         1 UNK         0.3205 
    126 H126       33.0360   -3.8091   -9.4863 H         1 UNK         0.0754 
    127 H127       33.5577   -4.7622   -7.2423 H         1 UNK         0.0769 
    128 H128       31.8207   -4.7173   -7.4732 H         1 UNK         0.0769 
    129 H129       32.6076   -3.5176   -6.4516 H         1 UNK         0.0769 
    130 H130       33.1990   -1.0359   -7.2198 H         1 UNK         0.2981 
    131 H131       36.0909   -0.8146   -7.3547 H         1 UNK         0.0541 
    132 H132       34.3958    1.6710  -10.1561 H         1 UNK         0.3459 
    133 H133       33.3368    0.7523   -9.1090 H         1 UNK         0.3459 
    134 H134       35.7219    1.2924   -6.0219 H         1 UNK         0.0612 
    135 H135       33.9969    1.0531   -6.1513 H         1 UNK         0.0612 
    136 H136       33.9693    1.4347   -3.7071 H         1 UNK         0.0624 
    137 H137       34.3130    0.2269   -2.4972 H         1 UNK         0.0624 
@<TRIPOS>BOND
     1    1    2 1    
     2    1   72 1    
     3    1   73 1    
     4    1   74 1    
     5    2    3 2    
     6    2    4 am   BACKBONE|DICT|INTERRES
     7    4    5 1    
     8    4   75 1    
     9    5    6 1    
    10    5   35 1    
    11    5   76 1    
    12    6    7 1    
    13    6   77 1    
    14    6   78 1    
    15    7    8 1    
    16    8    9 1    
    17    8   79 1    
    18    8   80 1    
    19    9   10 ar   
    20    9   14 ar   
    21   10   11 ar   
    22   10   81 1    
    23   11   12 ar   
    24   11   71 1    
    25   12   13 ar   
    26   12   82 1    
    27   13   14 ar   
    28   13   15 1    
    29   14   83 1    
    30   15   16 1    
    31   15   84 1    
    32   15   85 1    
    33   16   17 1    
    34   17   18 1    
    35   17   86 1    
    36   17   87 1    
    37   18   19 1    
    38   18   37 1    
    39   18   88 1    
    40   19   20 am   BACKBONE|DICT|INTERRES
    41   19   89 1    
    42   20   21 2    
    43   20   22 1    
    44   22   23 1    
    45   22   24 1    
    46   22   90 1    
    47   23   91 1    
    48   23   92 1    
    49   23   93 1    
    50   24   25 am   BACKBONE|DICT|INTERRES
    51   24   94 1    
    52   25   26 2    
    53   25   27 1    
    54   27   28 1    
    55   27   29 1    
    56   27   95 1    
    57   28   96 1    
    58   28   97 1    
    59   28   98 1    
    60   29   30 am   BACKBONE|DICT|INTERRES
    61   29   99 1    
    62   30   31 2    
    63   30   32 1    
    64   32   33 1    
    65   32   34 1    
    66   32  100 1    
    67   33  101 1    
    68   33  102 1    
    69   33  103 1    
    70   34   35 am   BACKBONE|DICT|INTERRES
    71   34  104 1    
    72   35   36 2    
    73   37   38 2    
    74   37   39 am   BACKBONE|DICT|INTERRES
    75   39   40 1    
    76   39  105 1    
    77   40   41 1    
    78   40   42 1    
    79   40  106 1    
    80   41  107 1    
    81   41  108 1    
    82   41  109 1    
    83   42   43 2    
    84   42   44 am   BACKBONE|DICT|INTERRES
    85   44   45 1    
    86   44  110 1    
    87   45   46 1    
    88   45   47 1    
    89   45  111 1    
    90   46  112 1    
    91   46  113 1    
    92   46  114 1    
    93   47   48 2    
    94   47   49 am   BACKBONE|DICT|INTERRES
    95   49   50 1    
    96   49  115 1    
    97   50   51 1    
    98   50   52 1    
    99   50  116 1    
   100   51  117 1    
   101   51  118 1    
   102   51  119 1    
   103   52   53 2    
   104   52   54 am   BACKBONE|DICT|INTERRES
   105   54   55 1    
   106   54  120 1    
   107   55   56 1    
   108   55   57 1    
   109   55  121 1    
   110   56  122 1    
   111   56  123 1    
   112   56  124 1    
   113   57   58 2    
   114   57   59 am   BACKBONE|DICT|INTERRES
   115   59   60 1    
   116   59  125 1    
   117   60   61 1    
   118   60   62 1    
   119   60  126 1    
   120   61  127 1    
   121   61  128 1    
   122   61  129 1    
   123   62   63 2    
   124   62   64 am   BACKBONE|DICT|INTERRES
   125   64   65 1    
   126   64  130 1    
   127   65   66 1    
   128   65   69 1    
   129   65  131 1    
   130   66   67 am   BACKBONE|DICT|INTERRES
   131   66   68 2    
   132   67  132 1    
   133   67  133 1    
   134   69   70 1    
   135   69  134 1    
   136   69  135 1    
   137   70   71 1    
   138   71  136 1    
   139   71  137 1    
@<TRIPOS>SUBSTRUCTURE
     1 UNK         1 GROUP             0       ****    0 ROOT    
