@<TRIPOS>MOLECULE
3R137
137   139    1
SMALL
USER_CHARGES


@<TRIPOS>ATOM
      1 CA         30.1432    1.4042   -1.7547 C.3       0 UNK        -0.2020 
      2 C          29.5130    0.0485   -2.0358 C.2       0 UNK         0.4855 
      3 O          29.1016   -0.2074   -3.1652 O.2       0 UNK        -0.5197 
      4 N          29.4399   -0.8213   -1.0197 N.am      1 UNK        -0.4892 
      5 CA         28.7947   -2.1346   -1.1016 C.3       1 UNK         0.0835 
      6 C6         29.2392   -3.0448    0.0722 C.3       12 UNK        -0.0855 
      7 S7         28.8139   -4.8036   -0.1814 S.3       12 UNK        -0.2931 
      8 C8         30.3759   -5.4849   -0.8257 C.3       12 UNK         0.0378 
      9 C9         30.7412   -4.8766   -2.1714 C.ar      12 UNK        -0.0802 
     10 C10        31.8000   -3.9679   -2.2712 C.ar      12 UNK        -0.0944 
     11 C11        32.1231   -3.3923   -3.5029 C.ar      12 UNK        -0.0787 
     12 C12        31.3808   -3.7316   -4.6376 C.ar      12 UNK        -0.0862 
     13 C13        30.3084   -4.6230   -4.5471 C.ar      12 UNK        -0.0733 
     14 C14        30.0042   -5.2067   -3.3137 C.ar      12 UNK        -0.0832 
     15 C15        29.4683   -4.9384   -5.7776 C.3       12 UNK         0.0240 
     16 S16        27.7960   -4.2215   -5.6621 S.3       12 UNK        -0.2522 
     17 C17        28.1451   -2.4322   -5.5813 C.3       12 UNK        -0.0967 
     18 CA         27.4486   -1.6239   -6.7026 C.3       5 UNK         0.0660 
     19 N          25.9908   -1.7873   -6.6943 N.am      5 UNK        -0.4015 
     20 C          25.1545   -1.3300   -7.6372 C.2       4 UNK         0.4946 
     21 O          25.5196   -0.7334   -8.6495 O.2       4 UNK        -0.5353 
     22 CA         23.6508   -1.5445   -7.3944 C.3       4 UNK         0.0277 
     23 CB         23.2363   -2.9717   -7.7869 C.3       4 UNK        -0.1981 
     24 N          23.2561   -1.2785   -6.0089 N.am      4 UNK        -0.4209 
     25 C          23.3013   -0.0705   -5.4276 C.2       3 UNK         0.4942 
     26 O          23.6295    0.9603   -6.0125 O.2       3 UNK        -0.5208 
     27 CA         22.9809   -0.0099   -3.9231 C.3       3 UNK         0.0250 
     28 CB         21.4645    0.0976   -3.6963 C.3       3 UNK        -0.1990 
     29 N          23.5185   -1.1405   -3.1547 N.am      3 UNK        -0.4232 
     30 C          24.8126   -1.4883   -3.1199 C.2       2 UNK         0.4993 
     31 O          25.6874   -0.9094   -3.7672 O.2       2 UNK        -0.5286 
     32 CA         25.1720   -2.7232   -2.2761 C.3       2 UNK         0.0209 
     33 CB         24.7518   -4.0122   -3.0030 C.3       2 UNK        -0.1931 
     34 N          26.6086   -2.7903   -2.0014 N.am      2 UNK        -0.4546 
     35 C          27.2607   -1.9755   -1.1624 C.2       1 UNK         0.5154 
     36 O          26.7015   -1.1479   -0.4359 O.2       1 UNK        -0.5181 
     37 C          27.8412   -0.1385   -6.6064 C.2       5 UNK         0.5014 
     38 O          28.7115    0.3086   -7.3568 O.2       5 UNK        -0.5248 
     39 N          27.1683    0.5953   -5.7092 N.am      6 UNK        -0.4434 
     40 CA         27.3269    2.0340   -5.5129 C.3       6 UNK         0.0363 
     41 CB         26.5612    2.4682   -4.2534 C.3       6 UNK        -0.1936 
     42 C          26.8834    2.8475   -6.7392 C.2       6 UNK         0.5081 
     43 O          27.6100    3.7512   -7.1511 O.2       6 UNK        -0.5248 
     44 N          25.7248    2.4998   -7.3204 N.am      7 UNK        -0.4718 
     45 CA         25.1805    3.1243   -8.5314 C.3       7 UNK         0.0273 
     46 CB         23.7458    2.6305   -8.7747 C.3       7 UNK        -0.1935 
     47 C          26.0503    2.8874   -9.7765 C.2       7 UNK         0.5018 
     48 O          26.2387    3.8142  -10.5655 O.2       7 UNK        -0.5186 
     49 N          26.5826    1.6656   -9.9195 N.am      8 UNK        -0.4240 
     50 CA         27.5242    1.2931  -10.9787 C.3       8 UNK         0.0235 
     51 CB         27.6037   -0.2405  -11.0620 C.3       8 UNK        -0.2000 
     52 C          28.9343    1.8800  -10.7839 C.2       8 UNK         0.4941 
     53 O          29.6964    1.9154  -11.7507 O.2       8 UNK        -0.5273 
     54 N          29.2618    2.2910   -9.5478 N.am      9 UNK        -0.4262 
     55 CA         30.5852    2.6942   -9.0579 C.3       9 UNK         0.0264 
     56 CB         31.0474    4.0121   -9.7148 C.3       9 UNK        -0.1955 
     57 C          31.6018    1.5453   -9.2013 C.2       9 UNK         0.5031 
     58 O          32.6864    1.7354   -9.7553 O.2       9 UNK        -0.5390 
     59 N          31.1964    0.3552   -8.7364 N.am      10 UNK        -0.4204 
     60 CA         31.9207   -0.9057   -8.9104 C.3       10 UNK         0.0237 
     61 CB         30.9894   -2.0719   -8.5399 C.3       10 UNK        -0.1985 
     62 C          33.2357   -0.9957   -8.1176 C.2       10 UNK         0.4970 
     63 O          34.1486   -1.6971   -8.5561 O.2       10 UNK        -0.4914 
     64 N          33.3028   -0.3207   -6.9642 N.am      11 UNK        -0.4285 
     65 CA         34.4661   -0.3265   -6.0664 C.3       11 UNK         0.1007 
     66 C          35.6448    0.5172   -6.6201 C.2       11 UNK         0.5703 
     67 N          36.8775    0.0670   -6.4271 N.am      11 UNK        -0.7361 
     68 O          35.4549    1.5953   -7.1798 O.2       11 UNK        -0.4986 
     69 C69        34.0984    0.1159   -4.6235 C.3       12 UNK        -0.0947 
     70 S70        32.6273   -0.7258   -3.9512 S.3       12 UNK        -0.2240 
     71 C71        33.2655   -2.3965   -3.6209 C.3       12 UNK         0.0194 
     72 H72        29.4247    2.1986   -1.9553 H         1 UNK         0.0906 
     73 H73        31.0070    1.5552   -2.4016 H         1 UNK         0.0906 
     74 H74        30.4733    1.4959   -0.7202 H         1 UNK         0.0906 
     75 H75        29.7599   -0.5436   -0.1032 H         1 UNK         0.3140 
     76 H76        29.1259   -2.5899   -2.0378 H         1 UNK         0.1085 
     77 H77        28.7948   -2.7100    1.0116 H         1 UNK         0.0836 
     78 H78        30.3184   -2.9702    0.2153 H         1 UNK         0.0836 
     79 H79        31.1706   -5.3266   -0.0947 H         1 UNK         0.0731 
     80 H80        30.2728   -6.5655   -0.9349 H         1 UNK         0.0731 
     81 H81        32.3668   -3.7015   -1.3895 H         1 UNK         0.1312 
     82 H82        31.6278   -3.2769   -5.5870 H         1 UNK         0.1406 
     83 H83        29.1741   -5.8963   -3.2371 H         1 UNK         0.1631 
     84 H84        29.3826   -6.0203   -5.8876 H         1 UNK         0.0717 
     85 H85        29.9513   -4.5750   -6.6861 H         1 UNK         0.0717 
     86 H86        27.8361   -2.0783   -4.5975 H         1 UNK         0.0934 
     87 H87        29.2218   -2.2657   -5.6191 H         1 UNK         0.0934 
     88 H88        27.8113   -1.9935   -7.6640 H         1 UNK         0.0739 
     89 H89        25.6040   -2.2210   -5.8701 H         1 UNK         0.3093 
     90 H90        23.1108   -0.8448   -8.0361 H         1 UNK         0.0818 
     91 H91        23.5071   -3.1838   -8.8223 H         1 UNK         0.0819 
     92 H92        23.7217   -3.7235   -7.1631 H         1 UNK         0.0819 
     93 H93        22.1582   -3.1092   -7.7020 H         1 UNK         0.0819 
     94 H94        22.9665   -2.0685   -5.4514 H         1 UNK         0.3041 
     95 H95        23.4476    0.8963   -3.5312 H         1 UNK         0.0784 
     96 H96        21.0475    0.9427   -4.2462 H         1 UNK         0.0793 
     97 H97        20.9395   -0.7987   -4.0293 H         1 UNK         0.0793 
     98 H98        21.2304    0.2531   -2.6430 H         1 UNK         0.0793 
     99 H99        22.8549   -1.6705   -2.6077 H         1 UNK         0.3024 
    100 H100       24.6408   -2.6576   -1.3237 H         1 UNK         0.1171 
    101 H101       23.6750   -4.0384   -3.1741 H         1 UNK         0.0786 
    102 H102       25.2384   -4.1069   -3.9743 H         1 UNK         0.0786 
    103 H103       25.0033   -4.8966   -2.4170 H         1 UNK         0.0786 
    104 H104       27.1432   -3.4375   -2.5620 H         1 UNK         0.2977 
    105 H105       26.5288    0.1142   -5.0782 H         1 UNK         0.3127 
    106 H106       28.3893    2.2267   -5.3481 H         1 UNK         0.0770 
    107 H107       25.4905    2.2855   -4.3486 H         1 UNK         0.0814 
    108 H108       26.6975    3.5331   -4.0611 H         1 UNK         0.0814 
    109 H109       26.9139    1.9290   -3.3736 H         1 UNK         0.0814 
    110 H110       25.1535    1.7783   -6.8868 H         1 UNK         0.2983 
    111 H111       25.1440    4.2022   -8.3590 H         1 UNK         0.0947 
    112 H112       23.7092    1.5484   -8.9063 H         1 UNK         0.0806 
    113 H113       23.3212    3.0846   -9.6710 H         1 UNK         0.0806 
    114 H114       23.0922    2.8879   -7.9411 H         1 UNK         0.0806 
    115 H115       26.3164    0.9318   -9.2665 H         1 UNK         0.3000 
    116 H116       27.1397    1.6697  -11.9290 H         1 UNK         0.0850 
    117 H117       28.2774   -0.5570  -11.8594 H         1 UNK         0.0810 
    118 H118       26.6269   -0.6776  -11.2702 H         1 UNK         0.0810 
    119 H119       27.9722   -0.6737  -10.1310 H         1 UNK         0.0810 
    120 H120       28.5561    2.1898   -8.8290 H         1 UNK         0.3040 
    121 H121       30.4729    2.8784   -7.9882 H         1 UNK         0.0766 
    122 H122       31.2223    3.8956  -10.7846 H         1 UNK         0.0812 
    123 H123       31.9802    4.3609   -9.2702 H         1 UNK         0.0812 
    124 H124       30.3076    4.8010   -9.5793 H         1 UNK         0.0812 
    125 H125       30.2847    0.3054   -8.2806 H         1 UNK         0.3205 
    126 H126       32.1742   -0.9970   -9.9688 H         1 UNK         0.0754 
    127 H127       31.4883   -3.0326   -8.6757 H         1 UNK         0.0769 
    128 H128       30.0957   -2.0800   -9.1644 H         1 UNK         0.0769 
    129 H129       30.6703   -2.0122   -7.4998 H         1 UNK         0.0769 
    130 H130       32.5179    0.2439   -6.6781 H         1 UNK         0.2981 
    131 H131       34.8139   -1.3592   -6.0117 H         1 UNK         0.0541 
    132 H132       37.6553    0.6119   -6.7653 H         1 UNK         0.3459 
    133 H133       37.0471   -0.8087   -5.9574 H         1 UNK         0.3459 
    134 H134       33.8969    1.1884   -4.5959 H         1 UNK         0.0612 
    135 H135       34.9364   -0.0547   -3.9452 H         1 UNK         0.0612 
    136 H136       33.8690   -2.3768   -2.7123 H         1 UNK         0.0624 
    137 H137       33.9245   -2.7182   -4.4269 H         1 UNK         0.0624 
@<TRIPOS>BOND
     1    1    2 1    
     2    1   72 1    
     3    1   73 1    
     4    1   74 1    
     5    2    3 2    
     6    2    4 am   BACKBONE|DICT|INTERRES
     7    4    5 1    
     8    4   75 1    
     9    5    6 1    
    10    5   35 1    
    11    5   76 1    
    12    6    7 1    
    13    6   77 1    
    14    6   78 1    
    15    7    8 1    
    16    8    9 1    
    17    8   79 1    
    18    8   80 1    
    19    9   10 ar   
    20    9   14 ar   
    21   10   11 ar   
    22   10   81 1    
    23   11   12 ar   
    24   11   71 1    
    25   12   13 ar   
    26   12   82 1    
    27   13   14 ar   
    28   13   15 1    
    29   14   83 1    
    30   15   16 1    
    31   15   84 1    
    32   15   85 1    
    33   16   17 1    
    34   17   18 1    
    35   17   86 1    
    36   17   87 1    
    37   18   19 1    
    38   18   37 1    
    39   18   88 1    
    40   19   20 am   BACKBONE|DICT|INTERRES
    41   19   89 1    
    42   20   21 2    
    43   20   22 1    
    44   22   23 1    
    45   22   24 1    
    46   22   90 1    
    47   23   91 1    
    48   23   92 1    
    49   23   93 1    
    50   24   25 am   BACKBONE|DICT|INTERRES
    51   24   94 1    
    52   25   26 2    
    53   25   27 1    
    54   27   28 1    
    55   27   29 1    
    56   27   95 1    
    57   28   96 1    
    58   28   97 1    
    59   28   98 1    
    60   29   30 am   BACKBONE|DICT|INTERRES
    61   29   99 1    
    62   30   31 2    
    63   30   32 1    
    64   32   33 1    
    65   32   34 1    
    66   32  100 1    
    67   33  101 1    
    68   33  102 1    
    69   33  103 1    
    70   34   35 am   BACKBONE|DICT|INTERRES
    71   34  104 1    
    72   35   36 2    
    73   37   38 2    
    74   37   39 am   BACKBONE|DICT|INTERRES
    75   39   40 1    
    76   39  105 1    
    77   40   41 1    
    78   40   42 1    
    79   40  106 1    
    80   41  107 1    
    81   41  108 1    
    82   41  109 1    
    83   42   43 2    
    84   42   44 am   BACKBONE|DICT|INTERRES
    85   44   45 1    
    86   44  110 1    
    87   45   46 1    
    88   45   47 1    
    89   45  111 1    
    90   46  112 1    
    91   46  113 1    
    92   46  114 1    
    93   47   48 2    
    94   47   49 am   BACKBONE|DICT|INTERRES
    95   49   50 1    
    96   49  115 1    
    97   50   51 1    
    98   50   52 1    
    99   50  116 1    
   100   51  117 1    
   101   51  118 1    
   102   51  119 1    
   103   52   53 2    
   104   52   54 am   BACKBONE|DICT|INTERRES
   105   54   55 1    
   106   54  120 1    
   107   55   56 1    
   108   55   57 1    
   109   55  121 1    
   110   56  122 1    
   111   56  123 1    
   112   56  124 1    
   113   57   58 2    
   114   57   59 am   BACKBONE|DICT|INTERRES
   115   59   60 1    
   116   59  125 1    
   117   60   61 1    
   118   60   62 1    
   119   60  126 1    
   120   61  127 1    
   121   61  128 1    
   122   61  129 1    
   123   62   63 2    
   124   62   64 am   BACKBONE|DICT|INTERRES
   125   64   65 1    
   126   64  130 1    
   127   65   66 1    
   128   65   69 1    
   129   65  131 1    
   130   66   67 am   BACKBONE|DICT|INTERRES
   131   66   68 2    
   132   67  132 1    
   133   67  133 1    
   134   69   70 1    
   135   69  134 1    
   136   69  135 1    
   137   70   71 1    
   138   71  136 1    
   139   71  137 1    
@<TRIPOS>SUBSTRUCTURE
     1 UNK         1 GROUP             0       ****    0 ROOT    
