@<TRIPOS>MOLECULE
3R137
137   139    1
SMALL
USER_CHARGES


@<TRIPOS>ATOM
      1 CA         31.3132    1.5798    0.6291 C.3       0 UNK        -0.2020 
      2 C          30.4664    0.8907   -0.4306 C.2       0 UNK         0.4855 
      3 O          30.5653    1.2394   -1.6071 O.2       0 UNK        -0.5197 
      4 N          29.6473   -0.0872   -0.0195 N.am      1 UNK        -0.4892 
      5 CA         28.7216   -0.8250   -0.8815 C.3       1 UNK         0.0835 
      6 C6         28.5940   -2.3067   -0.4341 C.3       12 UNK        -0.0855 
      7 S7         27.6291   -3.3392   -1.5991 S.3       12 UNK        -0.2931 
      8 C8         28.7731   -4.6940   -2.0107 C.3       12 UNK         0.0378 
      9 C9         29.4083   -4.5191   -3.3839 C.ar      12 UNK        -0.0802 
     10 C10        30.5278   -3.6980   -3.5464 C.ar      12 UNK        -0.0944 
     11 C11        31.1607   -3.5909   -4.7899 C.ar      12 UNK        -0.0787 
     12 C12        30.6681   -4.3314   -5.8731 C.ar      12 UNK        -0.0862 
     13 C13        29.5447   -5.1522   -5.7273 C.ar      12 UNK        -0.0733 
     14 C14        28.9119   -5.2298   -4.4821 C.ar      12 UNK        -0.0832 
     15 C15        29.0680   -6.0247   -6.8860 C.3       12 UNK         0.0240 
     16 S16        28.4562   -5.0795   -8.3200 S.3       12 UNK        -0.2522 
     17 C17        26.8928   -4.3829   -7.6817 C.3       12 UNK        -0.0967 
     18 CA         26.5868   -2.9485   -8.1899 C.3       5 UNK         0.0660 
     19 N          25.2801   -2.4937   -7.7027 N.am      5 UNK        -0.4015 
     20 C          24.7130   -1.3020   -7.9464 C.2       4 UNK         0.4946 
     21 O          25.1780   -0.4610   -8.7143 O.2       4 UNK        -0.5353 
     22 CA         23.4395   -0.9634   -7.1497 C.3       4 UNK         0.0277 
     23 CB         22.1858   -1.3432   -7.9531 C.3       4 UNK        -0.1981 
     24 N          23.3864   -1.5938   -5.8236 N.am      4 UNK        -0.4209 
     25 C          24.2808   -1.3940   -4.8444 C.2       3 UNK         0.4942 
     26 O          25.2589   -0.6513   -4.9513 O.2       3 UNK        -0.5208 
     27 CA         24.0966   -2.2453   -3.5789 C.3       3 UNK         0.0250 
     28 CB         24.7324   -3.6314   -3.7853 C.3       3 UNK        -0.1990 
     29 N          24.6952   -1.6213   -2.3974 N.am      3 UNK        -0.4232 
     30 C          24.1959   -0.5533   -1.7577 C.2       2 UNK         0.4993 
     31 O          23.1558    0.0155   -2.0936 O.2       2 UNK        -0.5286 
     32 CA         24.9494   -0.0492   -0.5112 C.3       2 UNK         0.0209 
     33 CB         24.1753   -0.4162    0.7665 C.3       2 UNK        -0.1931 
     34 N          26.3089   -0.5876   -0.4077 N.am      2 UNK        -0.4546 
     35 C          27.3876   -0.0463   -0.9895 C.2       1 UNK         0.5154 
     36 O          27.3532    1.0242   -1.5976 O.2       1 UNK        -0.5181 
     37 C          27.7089   -1.9571   -7.8180 C.2       5 UNK         0.5014 
     38 O          28.4769   -1.5475   -8.6895 O.2       5 UNK        -0.5248 
     39 N          27.7494   -1.5631   -6.5389 N.am      6 UNK        -0.4434 
     40 CA         28.7522   -0.6575   -5.9893 C.3       6 UNK         0.0363 
     41 CB         28.6520   -0.6670   -4.4643 C.3       6 UNK        -0.1936 
     42 C          28.6304    0.7731   -6.5248 C.2       6 UNK         0.5081 
     43 O          29.6515    1.4416   -6.6837 O.2       6 UNK        -0.5248 
     44 N          27.3954    1.2062   -6.8104 N.am      7 UNK        -0.4718 
     45 CA         27.1009    2.4828   -7.4579 C.3       7 UNK         0.0273 
     46 CB         25.6114    2.8211   -7.2857 C.3       7 UNK        -0.1935 
     47 C          27.5005    2.4740   -8.9420 C.2       7 UNK         0.5018 
     48 O          28.1383    3.4232   -9.3970 O.2       7 UNK        -0.5186 
     49 N          27.1404    1.3997   -9.6605 N.am      8 UNK        -0.4240 
     50 CA         27.4361    1.2036  -11.0821 C.3       8 UNK         0.0235 
     51 CB         26.6648   -0.0177  -11.6086 C.3       8 UNK        -0.2000 
     52 C          28.9382    1.0647  -11.3745 C.2       8 UNK         0.4941 
     53 O          29.4339    1.7074  -12.3008 O.2       8 UNK        -0.5273 
     54 N          29.6374    0.2446  -10.5779 N.am      9 UNK        -0.4262 
     55 CA         31.0849    0.0358  -10.6808 C.3       9 UNK         0.0264 
     56 CB         31.4394   -1.3204  -10.0511 C.3       9 UNK        -0.1955 
     57 C          31.9142    1.1652  -10.0411 C.2       9 UNK         0.5031 
     58 O          33.1182    1.2313  -10.2924 O.2       9 UNK        -0.5390 
     59 N          31.2718    2.0116   -9.2211 N.am      10 UNK        -0.4204 
     60 CA         31.8382    3.1233   -8.4445 C.3       10 UNK         0.0237 
     61 CB         32.4104    4.2160   -9.3727 C.3       10 UNK        -0.1985 
     62 C          32.8365    2.6795   -7.3534 C.2       10 UNK         0.4970 
     63 O          33.6567    3.4883   -6.9150 O.2       10 UNK        -0.4914 
     64 N          32.7433    1.4152   -6.9253 N.am      11 UNK        -0.4285 
     65 CA         33.5415    0.8161   -5.8471 C.3       11 UNK         0.1007 
     66 C          32.9236    0.9882   -4.4300 C.2       11 UNK         0.5703 
     67 N          31.6895    1.4580   -4.2933 N.am      11 UNK        -0.7361 
     68 O          33.5864    0.6969   -3.4373 O.2       11 UNK        -0.4986 
     69 C69        33.8964   -0.6631   -6.1596 C.3       12 UNK        -0.0947 
     70 S70        32.4415   -1.7269   -6.4481 S.3       12 UNK        -0.2240 
     71 C71        32.4099   -2.7225   -4.9233 C.3       12 UNK         0.0194 
     72 H72        31.0720    2.6417    0.6683 H         1 UNK         0.0906 
     73 H73        31.1524    1.1578    1.6210 H         1 UNK         0.0906 
     74 H74        32.3706    1.4797    0.3853 H         1 UNK         0.0906 
     75 H75        29.5967   -0.3038    0.9663 H         1 UNK         0.3140 
     76 H76        29.1505   -0.8472   -1.8809 H         1 UNK         0.1085 
     77 H77        29.5950   -2.7286   -0.3352 H         1 UNK         0.0836 
     78 H78        28.1511   -2.3844    0.5604 H         1 UNK         0.0836 
     79 H79        28.2123   -5.6295   -1.9799 H         1 UNK         0.0731 
     80 H80        29.5476   -4.7957   -1.2496 H         1 UNK         0.0731 
     81 H81        30.9149   -3.1538   -2.6958 H         1 UNK         0.1312 
     82 H82        31.1677   -4.2828   -6.8309 H         1 UNK         0.1406 
     83 H83        28.0553   -5.8779   -4.3548 H         1 UNK         0.1631 
     84 H84        28.2882   -6.7150   -6.5605 H         1 UNK         0.0717 
     85 H85        29.9011   -6.6471   -7.2153 H         1 UNK         0.0717 
     86 H86        26.0900   -5.0591   -7.9800 H         1 UNK         0.0934 
     87 H87        26.9085   -4.4019   -6.5905 H         1 UNK         0.0934 
     88 H88        26.5273   -2.9764   -9.2800 H         1 UNK         0.0739 
     89 H89        24.7982   -3.1162   -7.0726 H         1 UNK         0.3093 
     90 H90        23.4331    0.1179   -6.9973 H         1 UNK         0.0818 
     91 H91        21.2761   -1.0190   -7.4473 H         1 UNK         0.0819 
     92 H92        22.1939   -0.8674   -8.9350 H         1 UNK         0.0819 
     93 H93        22.1168   -2.4198   -8.1139 H         1 UNK         0.0819 
     94 H94        22.6165   -2.2264   -5.6558 H         1 UNK         0.3041 
     95 H95        23.0278   -2.3714   -3.3924 H         1 UNK         0.0784 
     96 H96        24.2514   -4.1697   -4.6028 H         1 UNK         0.0793 
     97 H97        25.7946   -3.5582   -4.0235 H         1 UNK         0.0793 
     98 H98        24.6335   -4.2506   -2.8933 H         1 UNK         0.0793 
     99 H99        25.5729   -2.0079   -2.0794 H         1 UNK         0.3024 
    100 H100       24.9947    1.0403   -0.5809 H         1 UNK         0.1171 
    101 H101       24.6645   -0.0167    1.6551 H         1 UNK         0.0786 
    102 H102       23.1650   -0.0050    0.7433 H         1 UNK         0.0786 
    103 H103       24.0845   -1.4963    0.8888 H         1 UNK         0.0786 
    104 H104       26.4121   -1.4725    0.0691 H         1 UNK         0.2977 
    105 H105       27.0235   -1.8641   -5.9041 H         1 UNK         0.3127 
    106 H106       29.7310   -1.0406   -6.2739 H         1 UNK         0.0770 
    107 H107       27.7253   -0.2109   -4.1153 H         1 UNK         0.0814 
    108 H108       29.4766   -0.1070   -4.0251 H         1 UNK         0.0814 
    109 H109       28.6948   -1.6818   -4.0730 H         1 UNK         0.0814 
    110 H110       26.6166    0.5884   -6.6219 H         1 UNK         0.2983 
    111 H111       27.6855    3.2597   -6.9596 H         1 UNK         0.0947 
    112 H112       25.3808    3.7925   -7.7250 H         1 UNK         0.0806 
    113 H113       25.3352    2.8678   -6.2320 H         1 UNK         0.0806 
    114 H114       24.9673    2.0854   -7.7677 H         1 UNK         0.0806 
    115 H115       26.5778    0.6785   -9.2125 H         1 UNK         0.3000 
    116 H116       27.0775    2.0858  -11.6168 H         1 UNK         0.0850 
    117 H117       26.8639   -0.1806  -12.6686 H         1 UNK         0.0810 
    118 H118       25.5886    0.1167  -11.4973 H         1 UNK         0.0810 
    119 H119       26.9420   -0.9296  -11.0781 H         1 UNK         0.0810 
    120 H120       29.1476   -0.2951   -9.8638 H         1 UNK         0.3040 
    121 H121       31.3583   -0.0042  -11.7374 H         1 UNK         0.0766 
    122 H122       31.1402   -1.3633   -9.0046 H         1 UNK         0.0812 
    123 H123       32.5127   -1.5104  -10.0939 H         1 UNK         0.0812 
    124 H124       30.9423   -2.1400  -10.5700 H         1 UNK         0.0812 
    125 H125       30.2858    1.8479   -9.0657 H         1 UNK         0.3205 
    126 H126       30.9955    3.5631   -7.9088 H         1 UNK         0.0754 
    127 H127       32.6793    5.1092   -8.8076 H         1 UNK         0.0769 
    128 H128       31.6804    4.5180  -10.1239 H         1 UNK         0.0769 
    129 H129       33.3078    3.8786   -9.8919 H         1 UNK         0.0769 
    130 H130       32.0012    0.8378   -7.2932 H         1 UNK         0.2981 
    131 H131       34.4922    1.3503   -5.8033 H         1 UNK         0.0541 
    132 H132       31.1215    1.6659   -5.1037 H         1 UNK         0.3459 
    133 H133       31.2958    1.5235   -3.3587 H         1 UNK         0.3459 
    134 H134       34.5181   -1.0895   -5.3703 H         1 UNK         0.0612 
    135 H135       34.5081   -0.7006   -7.0621 H         1 UNK         0.0612 
    136 H136       33.2909   -3.3648   -4.8991 H         1 UNK         0.0624 
    137 H137       32.4890   -2.0469   -4.0701 H         1 UNK         0.0624 
@<TRIPOS>BOND
     1    1    2 1    
     2    1   72 1    
     3    1   73 1    
     4    1   74 1    
     5    2    3 2    
     6    2    4 am   BACKBONE|DICT|INTERRES
     7    4    5 1    
     8    4   75 1    
     9    5    6 1    
    10    5   35 1    
    11    5   76 1    
    12    6    7 1    
    13    6   77 1    
    14    6   78 1    
    15    7    8 1    
    16    8    9 1    
    17    8   79 1    
    18    8   80 1    
    19    9   10 ar   
    20    9   14 ar   
    21   10   11 ar   
    22   10   81 1    
    23   11   12 ar   
    24   11   71 1    
    25   12   13 ar   
    26   12   82 1    
    27   13   14 ar   
    28   13   15 1    
    29   14   83 1    
    30   15   16 1    
    31   15   84 1    
    32   15   85 1    
    33   16   17 1    
    34   17   18 1    
    35   17   86 1    
    36   17   87 1    
    37   18   19 1    
    38   18   37 1    
    39   18   88 1    
    40   19   20 am   BACKBONE|DICT|INTERRES
    41   19   89 1    
    42   20   21 2    
    43   20   22 1    
    44   22   23 1    
    45   22   24 1    
    46   22   90 1    
    47   23   91 1    
    48   23   92 1    
    49   23   93 1    
    50   24   25 am   BACKBONE|DICT|INTERRES
    51   24   94 1    
    52   25   26 2    
    53   25   27 1    
    54   27   28 1    
    55   27   29 1    
    56   27   95 1    
    57   28   96 1    
    58   28   97 1    
    59   28   98 1    
    60   29   30 am   BACKBONE|DICT|INTERRES
    61   29   99 1    
    62   30   31 2    
    63   30   32 1    
    64   32   33 1    
    65   32   34 1    
    66   32  100 1    
    67   33  101 1    
    68   33  102 1    
    69   33  103 1    
    70   34   35 am   BACKBONE|DICT|INTERRES
    71   34  104 1    
    72   35   36 2    
    73   37   38 2    
    74   37   39 am   BACKBONE|DICT|INTERRES
    75   39   40 1    
    76   39  105 1    
    77   40   41 1    
    78   40   42 1    
    79   40  106 1    
    80   41  107 1    
    81   41  108 1    
    82   41  109 1    
    83   42   43 2    
    84   42   44 am   BACKBONE|DICT|INTERRES
    85   44   45 1    
    86   44  110 1    
    87   45   46 1    
    88   45   47 1    
    89   45  111 1    
    90   46  112 1    
    91   46  113 1    
    92   46  114 1    
    93   47   48 2    
    94   47   49 am   BACKBONE|DICT|INTERRES
    95   49   50 1    
    96   49  115 1    
    97   50   51 1    
    98   50   52 1    
    99   50  116 1    
   100   51  117 1    
   101   51  118 1    
   102   51  119 1    
   103   52   53 2    
   104   52   54 am   BACKBONE|DICT|INTERRES
   105   54   55 1    
   106   54  120 1    
   107   55   56 1    
   108   55   57 1    
   109   55  121 1    
   110   56  122 1    
   111   56  123 1    
   112   56  124 1    
   113   57   58 2    
   114   57   59 am   BACKBONE|DICT|INTERRES
   115   59   60 1    
   116   59  125 1    
   117   60   61 1    
   118   60   62 1    
   119   60  126 1    
   120   61  127 1    
   121   61  128 1    
   122   61  129 1    
   123   62   63 2    
   124   62   64 am   BACKBONE|DICT|INTERRES
   125   64   65 1    
   126   64  130 1    
   127   65   66 1    
   128   65   69 1    
   129   65  131 1    
   130   66   67 am   BACKBONE|DICT|INTERRES
   131   66   68 2    
   132   67  132 1    
   133   67  133 1    
   134   69   70 1    
   135   69  134 1    
   136   69  135 1    
   137   70   71 1    
   138   71  136 1    
   139   71  137 1    
@<TRIPOS>SUBSTRUCTURE
     1 UNK         1 GROUP             0       ****    0 ROOT    
