@<TRIPOS>MOLECULE
3R137
137   139    1
SMALL
USER_CHARGES


@<TRIPOS>ATOM
      1 CA         31.0941   -3.4290   -5.7191 C.3       0 UNK        -0.2020 
      2 C          29.7844   -2.6727   -5.9240 C.2       0 UNK         0.4855 
      3 O          29.8100   -1.5737   -6.4745 O.2       0 UNK        -0.5197 
      4 N          28.6292   -3.2198   -5.5251 N.am      1 UNK        -0.4892 
      5 CA         28.4299   -4.5797   -5.0059 C.3       1 UNK         0.0835 
      6 C6         28.5771   -4.6867   -3.4617 C.3       12 UNK        -0.0855 
      7 S7         27.6110   -3.4697   -2.4977 S.3       12 UNK        -0.2931 
      8 C8         28.7270   -3.1830   -1.0870 C.3       12 UNK         0.0378 
      9 C9         29.5830   -1.9396   -1.2824 C.ar      12 UNK        -0.0802 
     10 C10        30.7604   -1.9847   -2.0369 C.ar      12 UNK        -0.0944 
     11 C11        31.5492   -0.8392   -2.1896 C.ar      12 UNK        -0.0787 
     12 C12        31.1529    0.3567   -1.5830 C.ar      12 UNK        -0.0862 
     13 C13        29.9759    0.4154   -0.8321 C.ar      12 UNK        -0.0733 
     14 C14        29.2020   -0.7389   -0.6788 C.ar      12 UNK        -0.0832 
     15 C15        29.5442    1.7204   -0.1777 C.3       12 UNK         0.0240 
     16 S16        27.8443    2.1860   -0.6359 S.3       12 UNK        -0.2522 
     17 C17        28.0457    2.7832   -2.3500 C.3       12 UNK        -0.0967 
     18 CA         28.0818    1.6704   -3.4481 C.3       5 UNK         0.0660 
     19 N          27.0448    0.6515   -3.2725 N.am      5 UNK        -0.4015 
     20 C          25.7256    0.8294   -3.4053 C.2       4 UNK         0.4946 
     21 O          25.1992    1.8703   -3.8075 O.2       4 UNK        -0.5353 
     22 CA         24.8424   -0.3510   -2.9678 C.3       4 UNK         0.0277 
     23 CB         23.8054    0.0980   -1.9241 C.3       4 UNK        -0.1981 
     24 N          24.1553   -0.9951   -4.0871 N.am      4 UNK        -0.4209 
     25 C          24.7704   -1.6431   -5.0823 C.2       3 UNK         0.4942 
     26 O          25.9989   -1.7073   -5.2156 O.2       3 UNK        -0.5208 
     27 CA         23.8635   -2.3771   -6.0809 C.3       3 UNK         0.0250 
     28 CB         23.2188   -1.4199   -7.0963 C.3       3 UNK        -0.1990 
     29 N          24.7279   -3.3184   -6.7683 N.am      3 UNK        -0.4232 
     30 C          24.4486   -4.5552   -7.1790 C.2       2 UNK         0.4993 
     31 O          23.3168   -5.0384   -7.2198 O.2       2 UNK        -0.5286 
     32 CA         25.6709   -5.4021   -7.5809 C.3       2 UNK         0.0209 
     33 CB         25.9039   -5.3290   -9.0990 C.3       2 UNK        -0.1931 
     34 N          26.8983   -4.9896   -6.8799 N.am      2 UNK        -0.4546 
     35 C          27.1214   -5.1730   -5.5676 C.2       1 UNK         0.5154 
     36 O          26.3392   -5.7764   -4.8312 O.2       1 UNK        -0.5181 
     37 C          28.0775    2.2238   -4.8929 C.2       5 UNK         0.5014 
     38 O          28.1165    1.4446   -5.8491 O.2       5 UNK        -0.5248 
     39 N          28.0051    3.5559   -5.0340 N.am      6 UNK        -0.4434 
     40 CA         28.0004    4.3047   -6.2929 C.3       6 UNK         0.0363 
     41 CB         28.0627    5.8081   -5.9762 C.3       6 UNK        -0.1936 
     42 C          26.8219    4.0011   -7.2389 C.2       6 UNK         0.5081 
     43 O          26.8820    4.4035   -8.4007 O.2       6 UNK        -0.5248 
     44 N          25.7868    3.2935   -6.7587 N.am      7 UNK        -0.4718 
     45 CA         24.6927    2.7760   -7.5860 C.3       7 UNK         0.0273 
     46 CB         23.5859    2.2104   -6.6836 C.3       7 UNK        -0.1935 
     47 C          25.1599    1.7151   -8.6009 C.2       7 UNK         0.5018 
     48 O          24.5587    1.6109   -9.6706 O.2       7 UNK        -0.5186 
     49 N          26.2225    0.9716   -8.2599 N.am      8 UNK        -0.4240 
     50 CA         26.9251    0.0644   -9.1683 C.3       8 UNK         0.0235 
     51 CB         27.0225   -1.3357   -8.5466 C.3       8 UNK        -0.2000 
     52 C          28.3174    0.6076   -9.5108 C.2       8 UNK         0.4941 
     53 O          28.6941    0.5721  -10.6826 O.2       8 UNK        -0.5273 
     54 N          29.0462    1.1043   -8.4967 N.am      9 UNK        -0.4262 
     55 CA         30.3989    1.6714   -8.5753 C.3       9 UNK         0.0264 
     56 CB         30.3875    2.9999   -9.3635 C.3       9 UNK        -0.1955 
     57 C          31.4461    0.6771   -9.1187 C.2       9 UNK         0.5031 
     58 O          32.3754    1.0859   -9.8178 O.2       9 UNK        -0.5390 
     59 N          31.2910   -0.6108   -8.7845 N.am      10 UNK        -0.4204 
     60 CA         32.1401   -1.7087   -9.2591 C.3       10 UNK         0.0237 
     61 CB         31.2451   -2.9158   -9.5984 C.3       10 UNK        -0.1985 
     62 C          33.2513   -2.0622   -8.2516 C.2       10 UNK         0.4970 
     63 O          33.7679   -3.1798   -8.2811 O.2       10 UNK        -0.4914 
     64 N          33.5843   -1.1173   -7.3639 N.am      11 UNK        -0.4285 
     65 CA         34.5607   -1.2605   -6.2736 C.3       11 UNK         0.1007 
     66 C          36.0466   -1.3615   -6.7270 C.2       11 UNK         0.5703 
     67 N          36.3880   -1.0482   -7.9715 N.am      11 UNK        -0.7361 
     68 O          36.9052   -1.7368   -5.9321 O.2       11 UNK        -0.4986 
     69 C69        34.3854   -0.1414   -5.2125 C.3       12 UNK        -0.0947 
     70 S70        32.6806   -0.0110   -4.5713 S.3       12 UNK        -0.2240 
     71 C71        32.8430   -0.8888   -2.9879 C.3       12 UNK         0.0194 
     72 H72        31.1182   -3.9751   -4.7797 H         1 UNK         0.0906 
     73 H73        31.2694   -4.1292   -6.5347 H         1 UNK         0.0906 
     74 H74        31.9242   -2.7271   -5.6909 H         1 UNK         0.0906 
     75 H75        27.7863   -2.6521   -5.5532 H         1 UNK         0.3140 
     76 H76        29.1915   -5.2328   -5.4365 H         1 UNK         0.1085 
     77 H77        28.3123   -5.6875   -3.1153 H         1 UNK         0.0836 
     78 H78        29.6276   -4.5766   -3.2005 H         1 UNK         0.0836 
     79 H79        28.1192   -3.0790   -0.1868 H         1 UNK         0.0731 
     80 H80        29.3602   -4.0544   -0.9139 H         1 UNK         0.0731 
     81 H81        31.0687   -2.9119   -2.4974 H         1 UNK         0.1312 
     82 H82        31.7632    1.2416   -1.7023 H         1 UNK         0.1406 
     83 H83        28.2950   -0.6974   -0.0905 H         1 UNK         0.1631 
     84 H84        30.2241    2.5361   -0.4286 H         1 UNK         0.0717 
     85 H85        29.5939    1.5996    0.9052 H         1 UNK         0.0717 
     86 H86        27.2030    3.4565   -2.5182 H         1 UNK         0.0934 
     87 H87        28.9474    3.3971   -2.3964 H         1 UNK         0.0934 
     88 H88        29.0291    1.1397   -3.3543 H         1 UNK         0.0739 
     89 H89        27.3823   -0.2651   -3.0151 H         1 UNK         0.3093 
     90 H90        25.4776   -1.1049   -2.4969 H         1 UNK         0.0818 
     91 H91        23.2390   -0.7481   -1.5349 H         1 UNK         0.0819 
     92 H92        24.2931    0.5787   -1.0746 H         1 UNK         0.0819 
     93 H93        23.0973    0.8158   -2.3405 H         1 UNK         0.0819 
     94 H94        23.1463   -0.9690   -4.0704 H         1 UNK         0.3041 
     95 H95        23.0924   -2.9198   -5.5298 H         1 UNK         0.0784 
     96 H96        22.5430   -0.7209   -6.6031 H         1 UNK         0.0793 
     97 H97        23.9671   -0.8360   -7.6310 H         1 UNK         0.0793 
     98 H98        22.6338   -1.9663   -7.8362 H         1 UNK         0.0793 
     99 H99        25.7023   -3.0527   -6.7034 H         1 UNK         0.3024 
    100 H100       25.4523   -6.4384   -7.3123 H         1 UNK         0.1171 
    101 H101       25.0158   -5.6508   -9.6447 H         1 UNK         0.0786 
    102 H102       26.7237   -5.9785   -9.4065 H         1 UNK         0.0786 
    103 H103       26.1368   -4.3150   -9.4261 H         1 UNK         0.0786 
    104 H104       27.5966   -4.5023   -7.4234 H         1 UNK         0.2977 
    105 H105       27.9429    4.1152   -4.1964 H         1 UNK         0.3127 
    106 H106       28.9126    4.0327   -6.8253 H         1 UNK         0.0770 
    107 H107       27.1857    6.1393   -5.4187 H         1 UNK         0.0814 
    108 H108       28.1079    6.3996   -6.8919 H         1 UNK         0.0814 
    109 H109       28.9489    6.0567   -5.3919 H         1 UNK         0.0814 
    110 H110       25.8007    3.0018   -5.7885 H         1 UNK         0.2983 
    111 H111       24.2777    3.6121   -8.1533 H         1 UNK         0.0947 
    112 H112       22.7348    1.8718   -7.2760 H         1 UNK         0.0806 
    113 H113       23.2177    2.9619   -5.9851 H         1 UNK         0.0806 
    114 H114       23.9388    1.3587   -6.1023 H         1 UNK         0.0806 
    115 H115       26.6596    1.1435   -7.3608 H         1 UNK         0.3000 
    116 H116       26.3821   -0.0312  -10.1111 H         1 UNK         0.0850 
    117 H117       27.7020   -1.9764   -9.1106 H         1 UNK         0.0810 
    118 H118       27.3820   -1.2943   -7.5189 H         1 UNK         0.0810 
    119 H119       26.0481   -1.8191   -8.5497 H         1 UNK         0.0810 
    120 H120       28.6650    1.0566   -7.5523 H         1 UNK         0.3040 
    121 H121       30.6908    1.8941   -7.5478 H         1 UNK         0.0766 
    122 H122       29.6103    3.6753   -9.0098 H         1 UNK         0.0812 
    123 H123       30.2181    2.8339  -10.4280 H         1 UNK         0.0812 
    124 H124       31.3405    3.5209   -9.2648 H         1 UNK         0.0812 
    125 H125       30.5677   -0.8580   -8.1104 H         1 UNK         0.3205 
    126 H126       32.6442   -1.4111  -10.1808 H         1 UNK         0.0754 
    127 H127       31.8306   -3.7431  -10.0015 H         1 UNK         0.0769 
    128 H128       30.5024   -2.6524  -10.3519 H         1 UNK         0.0769 
    129 H129       30.7115   -3.2863   -8.7245 H         1 UNK         0.0769 
    130 H130       33.1070   -0.2304   -7.4101 H         1 UNK         0.2981 
    131 H131       34.3429   -2.2097   -5.7807 H         1 UNK         0.0541 
    132 H132       37.3531   -1.1219   -8.2525 H         1 UNK         0.3459 
    133 H133       35.6916   -0.7386   -8.6299 H         1 UNK         0.3459 
    134 H134       34.6501    0.8266   -5.6419 H         1 UNK         0.0612 
    135 H135       35.0690   -0.2944   -4.3754 H         1 UNK         0.0612 
    136 H136       33.6439   -0.4363   -2.4013 H         1 UNK         0.0624 
    137 H137       33.1407   -1.9207   -3.1809 H         1 UNK         0.0624 
@<TRIPOS>BOND
     1    1    2 1    
     2    1   72 1    
     3    1   73 1    
     4    1   74 1    
     5    2    3 2    
     6    2    4 am   BACKBONE|DICT|INTERRES
     7    4    5 1    
     8    4   75 1    
     9    5    6 1    
    10    5   35 1    
    11    5   76 1    
    12    6    7 1    
    13    6   77 1    
    14    6   78 1    
    15    7    8 1    
    16    8    9 1    
    17    8   79 1    
    18    8   80 1    
    19    9   10 ar   
    20    9   14 ar   
    21   10   11 ar   
    22   10   81 1    
    23   11   12 ar   
    24   11   71 1    
    25   12   13 ar   
    26   12   82 1    
    27   13   14 ar   
    28   13   15 1    
    29   14   83 1    
    30   15   16 1    
    31   15   84 1    
    32   15   85 1    
    33   16   17 1    
    34   17   18 1    
    35   17   86 1    
    36   17   87 1    
    37   18   19 1    
    38   18   37 1    
    39   18   88 1    
    40   19   20 am   BACKBONE|DICT|INTERRES
    41   19   89 1    
    42   20   21 2    
    43   20   22 1    
    44   22   23 1    
    45   22   24 1    
    46   22   90 1    
    47   23   91 1    
    48   23   92 1    
    49   23   93 1    
    50   24   25 am   BACKBONE|DICT|INTERRES
    51   24   94 1    
    52   25   26 2    
    53   25   27 1    
    54   27   28 1    
    55   27   29 1    
    56   27   95 1    
    57   28   96 1    
    58   28   97 1    
    59   28   98 1    
    60   29   30 am   BACKBONE|DICT|INTERRES
    61   29   99 1    
    62   30   31 2    
    63   30   32 1    
    64   32   33 1    
    65   32   34 1    
    66   32  100 1    
    67   33  101 1    
    68   33  102 1    
    69   33  103 1    
    70   34   35 am   BACKBONE|DICT|INTERRES
    71   34  104 1    
    72   35   36 2    
    73   37   38 2    
    74   37   39 am   BACKBONE|DICT|INTERRES
    75   39   40 1    
    76   39  105 1    
    77   40   41 1    
    78   40   42 1    
    79   40  106 1    
    80   41  107 1    
    81   41  108 1    
    82   41  109 1    
    83   42   43 2    
    84   42   44 am   BACKBONE|DICT|INTERRES
    85   44   45 1    
    86   44  110 1    
    87   45   46 1    
    88   45   47 1    
    89   45  111 1    
    90   46  112 1    
    91   46  113 1    
    92   46  114 1    
    93   47   48 2    
    94   47   49 am   BACKBONE|DICT|INTERRES
    95   49   50 1    
    96   49  115 1    
    97   50   51 1    
    98   50   52 1    
    99   50  116 1    
   100   51  117 1    
   101   51  118 1    
   102   51  119 1    
   103   52   53 2    
   104   52   54 am   BACKBONE|DICT|INTERRES
   105   54   55 1    
   106   54  120 1    
   107   55   56 1    
   108   55   57 1    
   109   55  121 1    
   110   56  122 1    
   111   56  123 1    
   112   56  124 1    
   113   57   58 2    
   114   57   59 am   BACKBONE|DICT|INTERRES
   115   59   60 1    
   116   59  125 1    
   117   60   61 1    
   118   60   62 1    
   119   60  126 1    
   120   61  127 1    
   121   61  128 1    
   122   61  129 1    
   123   62   63 2    
   124   62   64 am   BACKBONE|DICT|INTERRES
   125   64   65 1    
   126   64  130 1    
   127   65   66 1    
   128   65   69 1    
   129   65  131 1    
   130   66   67 am   BACKBONE|DICT|INTERRES
   131   66   68 2    
   132   67  132 1    
   133   67  133 1    
   134   69   70 1    
   135   69  134 1    
   136   69  135 1    
   137   70   71 1    
   138   71  136 1    
   139   71  137 1    
@<TRIPOS>SUBSTRUCTURE
     1 UNK         1 GROUP             0       ****    0 ROOT    
