@<TRIPOS>MOLECULE
3R137
137   139    1
SMALL
USER_CHARGES


@<TRIPOS>ATOM
      1 CA         23.3533   -6.8339   -3.0262 C.3       0 UNK        -0.2020 
      2 C          24.1934   -6.0496   -2.0290 C.2       0 UNK         0.4855 
      3 O          23.8206   -5.9509   -0.8592 O.2       0 UNK        -0.5197 
      4 N          25.3275   -5.5000   -2.4817 N.am      1 UNK        -0.4892 
      5 CA         26.2144   -4.6404   -1.6886 C.3       1 UNK         0.0835 
      6 C6         27.6576   -4.6455   -2.2601 C.3       12 UNK        -0.0855 
      7 S7         28.9123   -4.5215   -0.9437 S.3       12 UNK        -0.2931 
      8 C8         30.4035   -5.0796   -1.8297 C.3       12 UNK         0.0378 
      9 C9         30.8083   -4.1040   -2.9259 C.ar      12 UNK        -0.0802 
     10 C10        30.7610   -4.4824   -4.2718 C.ar      12 UNK        -0.0944 
     11 C11        31.1339   -3.5834   -5.2774 C.ar      12 UNK        -0.0787 
     12 C12        31.5477   -2.2971   -4.9206 C.ar      12 UNK        -0.0862 
     13 C13        31.5969   -1.9035   -3.5798 C.ar      12 UNK        -0.0733 
     14 C14        31.2343   -2.8171   -2.5877 C.ar      12 UNK        -0.0832 
     15 C15        32.0422   -0.4994   -3.1847 C.3       12 UNK         0.0240 
     16 S16        31.2893    0.8162   -4.1983 S.3       12 UNK        -0.2522 
     17 C17        29.5039    0.5086   -3.9585 C.3       12 UNK        -0.0967 
     18 CA         28.7878    0.1478   -5.2849 C.3       5 UNK         0.0660 
     19 N          27.5165   -0.5444   -5.0529 N.am      5 UNK        -0.4015 
     20 C          26.7755   -1.1134   -6.0194 C.2       4 UNK         0.4946 
     21 O          27.1281   -1.1792   -7.1950 O.2       4 UNK        -0.5353 
     22 CA         25.3823   -1.6517   -5.6428 C.3       4 UNK         0.0277 
     23 CB         25.4433   -3.1630   -5.3796 C.3       4 UNK        -0.1981 
     24 N          24.7819   -0.9598   -4.4996 N.am      4 UNK        -0.4209 
     25 C          24.5033    0.3539   -4.4819 C.2       3 UNK         0.4942 
     26 O          24.6243    1.0824   -5.4684 O.2       3 UNK        -0.5208 
     27 CA         24.0884    0.9867   -3.1402 C.3       3 UNK         0.0250 
     28 CB         22.5683    1.2080   -3.1024 C.3       3 UNK        -0.1990 
     29 N          24.4961    0.2300   -1.9509 N.am      3 UNK        -0.4232 
     30 C          25.7486   -0.1244   -1.6247 C.2       2 UNK         0.4993 
     31 O          26.7385    0.1603   -2.3012 O.2       2 UNK        -0.5286 
     32 CA         25.9249   -1.0029   -0.3700 C.3       2 UNK         0.0209 
     33 CB         24.7060   -0.9880    0.5808 C.3       2 UNK        -0.1931 
     34 N          26.2789   -2.3898   -0.7068 N.am      2 UNK        -0.4546 
     35 C          25.6409   -3.2096   -1.5565 C.2       1 UNK         0.5154 
     36 O          24.6613   -2.8696   -2.2283 O.2       1 UNK        -0.5181 
     37 C          28.6002    1.3947   -6.1725 C.2       5 UNK         0.5014 
     38 O          29.3906    1.6104   -7.0925 O.2       5 UNK        -0.5248 
     39 N          27.5445    2.1762   -5.9005 N.am      6 UNK        -0.4434 
     40 CA         27.1725    3.3543   -6.6834 C.3       6 UNK         0.0363 
     41 CB         26.1459    4.1985   -5.9114 C.3       6 UNK        -0.1936 
     42 C          26.6424    2.9709   -8.0723 C.2       6 UNK         0.5081 
     43 O          27.0355    3.5957   -9.0567 O.2       6 UNK        -0.5248 
     44 N          25.8049    1.9246   -8.1375 N.am      7 UNK        -0.4718 
     45 CA         25.2662    1.3703   -9.3859 C.3       7 UNK         0.0273 
     46 CB         24.2272    0.2851   -9.0659 C.3       7 UNK        -0.1935 
     47 C          26.3569    0.8178  -10.3222 C.2       7 UNK         0.5018 
     48 O          26.2778    1.0242  -11.5333 O.2       7 UNK        -0.5186 
     49 N          27.3715    0.1641   -9.7406 N.am      8 UNK        -0.4240 
     50 CA         28.5618   -0.3381  -10.4314 C.3       8 UNK         0.0235 
     51 CB         29.1336   -1.5142   -9.6255 C.3       8 UNK        -0.2000 
     52 C          29.6399    0.7372  -10.6840 C.2       8 UNK         0.4941 
     53 O          30.6798    0.4024  -11.2525 O.2       8 UNK        -0.5273 
     54 N          29.3847    1.9907  -10.2766 N.am      9 UNK        -0.4262 
     55 CA         30.2289    3.1780  -10.4474 C.3       9 UNK         0.0264 
     56 CB         30.3587    3.5483  -11.9410 C.3       9 UNK        -0.1955 
     57 C          31.5870    3.0675   -9.7278 C.2       9 UNK         0.5031 
     58 O          32.6321    3.2652  -10.3514 O.2       9 UNK        -0.5390 
     59 N          31.5319    2.7790   -8.4191 N.am      10 UNK        -0.4204 
     60 CA         32.6509    2.6660   -7.4768 C.3       10 UNK         0.0237 
     61 CB         33.4277    3.9953   -7.3525 C.3       10 UNK        -0.1985 
     62 C          33.5478    1.4580   -7.7940 C.2       10 UNK         0.4970 
     63 O          34.7419    1.6158   -8.0548 O.2       10 UNK        -0.4914 
     64 N          32.9355    0.2677   -7.7659 N.am      11 UNK        -0.4285 
     65 CA         33.5873   -1.0346   -7.9985 C.3       11 UNK         0.1007 
     66 C          34.6596   -1.4274   -6.9330 C.2       11 UNK         0.5703 
     67 N          34.6523   -0.8457   -5.7388 N.am      11 UNK        -0.7361 
     68 O          35.5371   -2.2417   -7.2106 O.2       11 UNK        -0.4986 
     69 C69        32.5154   -2.1255   -8.3407 C.3       12 UNK        -0.0947 
     70 S70        32.6463   -3.8100   -7.6260 S.3       12 UNK        -0.2240 
     71 C71        31.0576   -3.9983   -6.7432 C.3       12 UNK         0.0194 
     72 H72        23.8046   -6.8496   -4.0181 H         1 UNK         0.0906 
     73 H73        23.2361   -7.8640   -2.6907 H         1 UNK         0.0906 
     74 H74        22.3625   -6.3885   -3.1124 H         1 UNK         0.0906 
     75 H75        25.5633   -5.5941   -3.4586 H         1 UNK         0.3140 
     76 H76        26.2390   -5.0609   -0.6801 H         1 UNK         0.1085 
     77 H77        27.8475   -5.5784   -2.7940 H         1 UNK         0.0836 
     78 H78        27.8190   -3.8487   -2.9891 H         1 UNK         0.0836 
     79 H79        30.2338   -6.0787   -2.2342 H         1 UNK         0.0731 
     80 H80        31.2236   -5.1741   -1.1164 H         1 UNK         0.0731 
     81 H81        30.4301   -5.4774   -4.5363 H         1 UNK         0.1312 
     82 H82        31.8265   -1.5940   -5.6892 H         1 UNK         0.1406 
     83 H83        31.2689   -2.5267   -1.5461 H         1 UNK         0.1631 
     84 H84        33.1273   -0.4366   -3.2691 H         1 UNK         0.0717 
     85 H85        31.8041   -0.3002   -2.1386 H         1 UNK         0.0717 
     86 H86        29.3801   -0.3019   -3.2386 H         1 UNK         0.0934 
     87 H87        29.0520    1.3822   -3.4841 H         1 UNK         0.0934 
     88 H88        29.4182   -0.5514   -5.8380 H         1 UNK         0.0739 
     89 H89        27.1466   -0.4908   -4.1076 H         1 UNK         0.3093 
     90 H90        24.7232   -1.4888   -6.4963 H         1 UNK         0.0818 
     91 H91        25.7849   -3.6973   -6.2673 H         1 UNK         0.0819 
     92 H92        26.1350   -3.4000   -4.5736 H         1 UNK         0.0819 
     93 H93        24.4642   -3.5629   -5.1149 H         1 UNK         0.0819 
     94 H94        24.6529   -1.5039   -3.6499 H         1 UNK         0.3041 
     95 H95        24.5777    1.9613   -3.0853 H         1 UNK         0.0784 
     96 H96        22.2373    1.7935   -3.9616 H         1 UNK         0.0793 
     97 H97        22.0229    0.2636   -3.1219 H         1 UNK         0.0793 
     98 H98        22.2674    1.7531   -2.2074 H         1 UNK         0.0793 
     99 H99        23.7507   -0.0957   -1.3527 H         1 UNK         0.3024 
    100 H100       26.7736   -0.5813    0.1715 H         1 UNK         0.1171 
    101 H101       24.4303    0.0308    0.8571 H         1 UNK         0.0786 
    102 H102       23.8297   -1.4663    0.1413 H         1 UNK         0.0786 
    103 H103       24.9319   -1.5158    1.5076 H         1 UNK         0.0786 
    104 H104       27.1151   -2.7451   -0.2609 H         1 UNK         0.2977 
    105 H105       26.9083    1.9000   -5.1661 H         1 UNK         0.3127 
    106 H106       28.0692    3.9618   -6.8257 H         1 UNK         0.0770 
    107 H107       25.2164    3.6558   -5.7379 H         1 UNK         0.0814 
    108 H108       25.8934    5.1029   -6.4666 H         1 UNK         0.0814 
    109 H109       26.5374    4.5124   -4.9438 H         1 UNK         0.0814 
    110 H110       25.5029    1.4928   -7.2691 H         1 UNK         0.2983 
    111 H111       24.7603    2.1831   -9.9117 H         1 UNK         0.0947 
    112 H112       23.7226   -0.0470   -9.9741 H         1 UNK         0.0806 
    113 H113       23.4608    0.6520   -8.3827 H         1 UNK         0.0806 
    114 H114       24.6901   -0.5925   -8.6157 H         1 UNK         0.0806 
    115 H115       27.3180   -0.0316   -8.7437 H         1 UNK         0.3000 
    116 H116       28.2616   -0.7176  -11.4103 H         1 UNK         0.0850 
    117 H117       30.0142   -1.9388  -10.1087 H         1 UNK         0.0810 
    118 H118       28.4029   -2.3168   -9.5244 H         1 UNK         0.0810 
    119 H119       29.4181   -1.1982   -8.6222 H         1 UNK         0.0810 
    120 H120       28.5050    2.1613   -9.8037 H         1 UNK         0.3040 
    121 H121       29.6969    3.9960   -9.9591 H         1 UNK         0.0766 
    122 H122       30.9094    2.7923  -12.5016 H         1 UNK         0.0812 
    123 H123       30.8900    4.4929  -12.0632 H         1 UNK         0.0812 
    124 H124       29.3800    3.6649  -12.4064 H         1 UNK         0.0812 
    125 H125       30.6235    2.5291   -8.0253 H         1 UNK         0.3205 
    126 H126       32.2025    2.4701   -6.5025 H         1 UNK         0.0754 
    127 H127       34.1830    3.9299   -6.5685 H         1 UNK         0.0769 
    128 H128       32.7628    4.8193   -7.0937 H         1 UNK         0.0769 
    129 H129       33.9442    4.2582   -8.2760 H         1 UNK         0.0769 
    130 H130       31.9491    0.2459   -7.5551 H         1 UNK         0.2981 
    131 H131       34.1728   -0.9003   -8.9104 H         1 UNK         0.0541 
    132 H132       35.3616   -1.0966   -5.0689 H         1 UNK         0.3459 
    133 H133       33.9633   -0.1490   -5.5106 H         1 UNK         0.3459 
    134 H134       32.4734   -2.2463   -9.4241 H         1 UNK         0.0612 
    135 H135       31.5298   -1.7508   -8.0739 H         1 UNK         0.0612 
    136 H136       30.2689   -3.4346   -7.2429 H         1 UNK         0.0624 
    137 H137       30.7654   -5.0467   -6.8186 H         1 UNK         0.0624 
@<TRIPOS>BOND
     1    1    2 1    
     2    1   72 1    
     3    1   73 1    
     4    1   74 1    
     5    2    3 2    
     6    2    4 am   BACKBONE|DICT|INTERRES
     7    4    5 1    
     8    4   75 1    
     9    5    6 1    
    10    5   35 1    
    11    5   76 1    
    12    6    7 1    
    13    6   77 1    
    14    6   78 1    
    15    7    8 1    
    16    8    9 1    
    17    8   79 1    
    18    8   80 1    
    19    9   10 ar   
    20    9   14 ar   
    21   10   11 ar   
    22   10   81 1    
    23   11   12 ar   
    24   11   71 1    
    25   12   13 ar   
    26   12   82 1    
    27   13   14 ar   
    28   13   15 1    
    29   14   83 1    
    30   15   16 1    
    31   15   84 1    
    32   15   85 1    
    33   16   17 1    
    34   17   18 1    
    35   17   86 1    
    36   17   87 1    
    37   18   19 1    
    38   18   37 1    
    39   18   88 1    
    40   19   20 am   BACKBONE|DICT|INTERRES
    41   19   89 1    
    42   20   21 2    
    43   20   22 1    
    44   22   23 1    
    45   22   24 1    
    46   22   90 1    
    47   23   91 1    
    48   23   92 1    
    49   23   93 1    
    50   24   25 am   BACKBONE|DICT|INTERRES
    51   24   94 1    
    52   25   26 2    
    53   25   27 1    
    54   27   28 1    
    55   27   29 1    
    56   27   95 1    
    57   28   96 1    
    58   28   97 1    
    59   28   98 1    
    60   29   30 am   BACKBONE|DICT|INTERRES
    61   29   99 1    
    62   30   31 2    
    63   30   32 1    
    64   32   33 1    
    65   32   34 1    
    66   32  100 1    
    67   33  101 1    
    68   33  102 1    
    69   33  103 1    
    70   34   35 am   BACKBONE|DICT|INTERRES
    71   34  104 1    
    72   35   36 2    
    73   37   38 2    
    74   37   39 am   BACKBONE|DICT|INTERRES
    75   39   40 1    
    76   39  105 1    
    77   40   41 1    
    78   40   42 1    
    79   40  106 1    
    80   41  107 1    
    81   41  108 1    
    82   41  109 1    
    83   42   43 2    
    84   42   44 am   BACKBONE|DICT|INTERRES
    85   44   45 1    
    86   44  110 1    
    87   45   46 1    
    88   45   47 1    
    89   45  111 1    
    90   46  112 1    
    91   46  113 1    
    92   46  114 1    
    93   47   48 2    
    94   47   49 am   BACKBONE|DICT|INTERRES
    95   49   50 1    
    96   49  115 1    
    97   50   51 1    
    98   50   52 1    
    99   50  116 1    
   100   51  117 1    
   101   51  118 1    
   102   51  119 1    
   103   52   53 2    
   104   52   54 am   BACKBONE|DICT|INTERRES
   105   54   55 1    
   106   54  120 1    
   107   55   56 1    
   108   55   57 1    
   109   55  121 1    
   110   56  122 1    
   111   56  123 1    
   112   56  124 1    
   113   57   58 2    
   114   57   59 am   BACKBONE|DICT|INTERRES
   115   59   60 1    
   116   59  125 1    
   117   60   61 1    
   118   60   62 1    
   119   60  126 1    
   120   61  127 1    
   121   61  128 1    
   122   61  129 1    
   123   62   63 2    
   124   62   64 am   BACKBONE|DICT|INTERRES
   125   64   65 1    
   126   64  130 1    
   127   65   66 1    
   128   65   69 1    
   129   65  131 1    
   130   66   67 am   BACKBONE|DICT|INTERRES
   131   66   68 2    
   132   67  132 1    
   133   67  133 1    
   134   69   70 1    
   135   69  134 1    
   136   69  135 1    
   137   70   71 1    
   138   71  136 1    
   139   71  137 1    
@<TRIPOS>SUBSTRUCTURE
     1 UNK         1 GROUP             0       ****    0 ROOT    
