@<TRIPOS>MOLECULE
3R137
137   139    1
SMALL
USER_CHARGES


@<TRIPOS>ATOM
      1 CA         32.1911   -0.2019   -0.0352 C.3       0 UNK        -0.2020 
      2 C          30.8400   -0.8733   -0.2262 C.2       0 UNK         0.4855 
      3 O          30.0202   -0.8683    0.6929 O.2       0 UNK        -0.5197 
      4 N          30.6081   -1.4531   -1.4117 N.am      1 UNK        -0.4892 
      5 CA         29.3860   -2.1372   -1.8488 C.3       1 UNK         0.0835 
      6 C6         29.0055   -3.3398   -0.9409 C.3       12 UNK        -0.0855 
      7 S7         27.9526   -4.5713   -1.7779 S.3       12 UNK        -0.2931 
      8 C8         29.1801   -5.8251   -2.2704 C.3       12 UNK         0.0378 
      9 C9         29.9591   -5.3773   -3.4971 C.ar      12 UNK        -0.0802 
     10 C10        31.2078   -4.7602   -3.3666 C.ar      12 UNK        -0.0944 
     11 C11        31.8922   -4.3040   -4.4979 C.ar      12 UNK        -0.0787 
     12 C12        31.3399   -4.5044   -5.7648 C.ar      12 UNK        -0.0862 
     13 C13        30.0969   -5.1260   -5.9057 C.ar      12 UNK        -0.0733 
     14 C14        29.4110   -5.5614   -4.7693 C.ar      12 UNK        -0.0832 
     15 C15        29.4796   -5.2924   -7.2849 C.3       12 UNK         0.0240 
     16 S16        29.1236   -3.6835   -8.0546 S.3       12 UNK        -0.2522 
     17 C17        28.0305   -2.9145   -6.8146 C.3       12 UNK        -0.0967 
     18 CA         27.2568   -1.7183   -7.4231 C.3       5 UNK         0.0660 
     19 N          25.8334   -1.7552   -7.0877 N.am      5 UNK        -0.4015 
     20 C          24.8853   -1.0333   -7.7001 C.2       4 UNK         0.4946 
     21 O          25.1157   -0.2891   -8.6549 O.2       4 UNK        -0.5353 
     22 CA         23.4629   -1.1008   -7.1079 C.3       4 UNK         0.0277 
     23 CB         22.6092   -2.1132   -7.8869 C.3       4 UNK        -0.1981 
     24 N          23.4206   -1.4222   -5.6712 N.am      4 UNK        -0.4209 
     25 C          24.0414   -0.7154   -4.7147 C.2       3 UNK         0.4942 
     26 O          24.7028    0.2961   -4.9595 O.2       3 UNK        -0.5208 
     27 CA         23.9713   -1.2365   -3.2696 C.3       3 UNK         0.0250 
     28 CB         23.9386   -2.7752   -3.1703 C.3       3 UNK        -0.1990 
     29 N          25.1500   -0.7357   -2.5711 N.am      3 UNK        -0.4232 
     30 C          25.2161   -0.2496   -1.3321 C.2       2 UNK         0.4993 
     31 O          24.2735   -0.2669   -0.5377 O.2       2 UNK        -0.5286 
     32 CA         26.5746    0.3627   -0.9269 C.3       2 UNK         0.0209 
     33 CB         26.5436    0.9926    0.4782 C.3       2 UNK        -0.1931 
     34 N          27.6833   -0.5954   -0.9835 N.am      2 UNK        -0.4546 
     35 C          28.2292   -1.1448   -2.0772 C.2       1 UNK         0.5154 
     36 O          27.8769   -0.8762   -3.2282 O.2       1 UNK        -0.5181 
     37 C          27.9320   -0.3591   -7.1238 C.2       5 UNK         0.5014 
     38 O          28.9689   -0.0676   -7.7226 O.2       5 UNK        -0.5248 
     39 N          27.3257    0.4853   -6.2729 N.am      6 UNK        -0.4434 
     40 CA         27.7365    1.8786   -6.0707 C.3       6 UNK         0.0363 
     41 CB         27.1265    2.4203   -4.7688 C.3       6 UNK        -0.1936 
     42 C          27.3798    2.7915   -7.2588 C.2       6 UNK         0.5081 
     43 O          27.9466    3.8789   -7.3585 O.2       6 UNK        -0.5248 
     44 N          26.4781    2.3440   -8.1433 N.am      7 UNK        -0.4718 
     45 CA         26.1962    2.9880   -9.4246 C.3       7 UNK         0.0273 
     46 CB         24.6811    2.9814   -9.6894 C.3       7 UNK        -0.1935 
     47 C          26.9554    2.2842  -10.5593 C.2       7 UNK         0.5018 
     48 O          27.5512    2.9678  -11.3918 O.2       7 UNK        -0.5186 
     49 N          26.9143    0.9421  -10.5833 N.am      8 UNK        -0.4240 
     50 CA         27.4733    0.1260  -11.6657 C.3       8 UNK         0.0235 
     51 CB         26.9057   -1.3018  -11.6009 C.3       8 UNK        -0.2000 
     52 C          29.0113    0.1065  -11.7098 C.2       8 UNK         0.4941 
     53 O          29.5771    0.3364  -12.7796 O.2       8 UNK        -0.5273 
     54 N          29.6576   -0.1802  -10.5707 N.am      9 UNK        -0.4262 
     55 CA         31.1184   -0.2926  -10.4551 C.3       9 UNK         0.0264 
     56 CB         31.4647   -1.6110   -9.7445 C.3       9 UNK        -0.1955 
     57 C          31.7467    0.8825   -9.6905 C.2       9 UNK         0.5031 
     58 O          32.9659    1.0455   -9.7520 O.2       9 UNK        -0.5390 
     59 N          30.9192    1.6528   -8.9701 N.am      10 UNK        -0.4204 
     60 CA         31.2815    2.7325   -8.0472 C.3       10 UNK         0.0237 
     61 CB         32.0193    3.8812   -8.7696 C.3       10 UNK        -0.1985 
     62 C          32.0127    2.2235   -6.7895 C.2       10 UNK         0.4970 
     63 O          32.8713    2.9320   -6.2608 O.2       10 UNK        -0.4914 
     64 N          31.6575    1.0152   -6.3232 N.am      11 UNK        -0.4285 
     65 CA         32.1825    0.4363   -5.0771 C.3       11 UNK         0.1007 
     66 C          31.6483    1.1753   -3.8186 C.2       11 UNK         0.5703 
     67 N          30.3364    1.2849   -3.6502 N.am      11 UNK        -0.7361 
     68 O          32.4245    1.6523   -2.9954 O.2       11 UNK        -0.4986 
     69 C69        31.9561   -1.0973   -5.0077 C.3       12 UNK        -0.0947 
     70 S70        32.9812   -1.8834   -3.7137 S.3       12 UNK        -0.2240 
     71 C71        33.2158   -3.5697   -4.3559 C.3       12 UNK         0.0194 
     72 H72        32.8470   -0.3521   -0.8927 H         1 UNK         0.0906 
     73 H73        32.0588    0.8708    0.1037 H         1 UNK         0.0906 
     74 H74        32.6895   -0.6028    0.8468 H         1 UNK         0.0906 
     75 H75        31.3335   -1.4086   -2.1167 H         1 UNK         0.3140 
     76 H76        29.6296   -2.5335   -2.8355 H         1 UNK         0.1085 
     77 H77        29.9110   -3.8404   -0.5955 H         1 UNK         0.0836 
     78 H78        28.4998   -3.0135   -0.0309 H         1 UNK         0.0836 
     79 H79        29.8523   -6.0450   -1.4397 H         1 UNK         0.0731 
     80 H80        28.6590   -6.7583   -2.4901 H         1 UNK         0.0731 
     81 H81        31.6324   -4.6021   -2.3846 H         1 UNK         0.1312 
     82 H82        31.8605   -4.1494   -6.6440 H         1 UNK         0.1406 
     83 H83        28.4401   -6.0278   -4.8698 H         1 UNK         0.1631 
     84 H84        30.1676   -5.8480   -7.9235 H         1 UNK         0.0717 
     85 H85        28.5598   -5.8774   -7.2376 H         1 UNK         0.0717 
     86 H86        27.3430   -3.6878   -6.4678 H         1 UNK         0.0934 
     87 H87        28.6149   -2.6266   -5.9372 H         1 UNK         0.0934 
     88 H88        27.2848   -1.8133   -8.5080 H         1 UNK         0.0739 
     89 H89        25.5637   -2.3357   -6.3082 H         1 UNK         0.3093 
     90 H90        23.0200   -0.1105   -7.2337 H         1 UNK         0.0818 
     91 H91        21.5711   -2.0974   -7.5543 H         1 UNK         0.0819 
     92 H92        22.6078   -1.8829   -8.9535 H         1 UNK         0.0819 
     93 H93        22.9840   -3.1313   -7.7742 H         1 UNK         0.0819 
     94 H94        22.8929   -2.2409   -5.4036 H         1 UNK         0.3041 
     95 H95        23.0682   -0.8223   -2.8167 H         1 UNK         0.0784 
     96 H96        23.0220   -3.1874   -3.5930 H         1 UNK         0.0793 
     97 H97        24.7836   -3.2328   -3.6868 H         1 UNK         0.0793 
     98 H98        23.9777   -3.0994   -2.1299 H         1 UNK         0.0793 
     99 H99        25.9936   -0.6687   -3.1364 H         1 UNK         0.3024 
    100 H100       26.7840    1.1618   -1.6407 H         1 UNK         0.1171 
    101 H101       27.4883    1.4833    0.7138 H         1 UNK         0.0786 
    102 H102       25.7607    1.7487    0.5522 H         1 UNK         0.0786 
    103 H103       26.3523    0.2461    1.2501 H         1 UNK         0.0786 
    104 H104       28.1251   -0.8252   -0.0995 H         1 UNK         0.2977 
    105 H105       26.4585    0.2112   -5.8187 H         1 UNK         0.3127 
    106 H106       28.8219    1.9018   -5.9665 H         1 UNK         0.0770 
    107 H107       26.0441    2.5282   -4.8428 H         1 UNK         0.0814 
    108 H108       27.5331    3.4039   -4.5307 H         1 UNK         0.0814 
    109 H109       27.3428    1.7665   -3.9252 H         1 UNK         0.0814 
    110 H110       26.0444    1.4409   -7.9908 H         1 UNK         0.2983 
    111 H111       26.5225    4.0304   -9.4046 H         1 UNK         0.0947 
    112 H112       24.4501    3.4789  -10.6323 H         1 UNK         0.0806 
    113 H113       24.1417    3.5108   -8.9039 H         1 UNK         0.0806 
    114 H114       24.2765    1.9708   -9.7485 H         1 UNK         0.0806 
    115 H115       26.3463    0.4624   -9.8892 H         1 UNK         0.3000 
    116 H116       27.1305    0.5651  -12.6056 H         1 UNK         0.0850 
    117 H117       27.2015   -1.8733  -12.4817 H         1 UNK         0.0810 
    118 H118       25.8159   -1.2976  -11.5696 H         1 UNK         0.0810 
    119 H119       27.2649   -1.8496  -10.7316 H         1 UNK         0.0810 
    120 H120       29.1294   -0.3425   -9.7203 H         1 UNK         0.3040 
    121 H121       31.5790   -0.3158  -11.4448 H         1 UNK         0.0766 
    122 H122       31.0272   -2.4674  -10.2576 H         1 UNK         0.0812 
    123 H123       31.1101   -1.6163   -8.7133 H         1 UNK         0.0812 
    124 H124       32.5438   -1.7677   -9.7154 H         1 UNK         0.0812 
    125 H125       29.9504    1.3614   -8.9329 H         1 UNK         0.3205 
    126 H126       30.3425    3.1435   -7.6849 H         1 UNK         0.0754 
    127 H127       32.1267    4.7470   -8.1151 H         1 UNK         0.0769 
    128 H128       31.4707    4.2108   -9.6520 H         1 UNK         0.0769 
    129 H129       33.0213    3.5896   -9.0850 H         1 UNK         0.0769 
    130 H130       30.9284    0.4993   -6.7992 H         1 UNK         0.2981 
    131 H131       33.2634    0.5922   -5.0990 H         1 UNK         0.0541 
    132 H132       29.6880    0.8455   -4.2828 H         1 UNK         0.3459 
    133 H133       29.9944    1.7766   -2.8412 H         1 UNK         0.3459 
    134 H134       32.2191   -1.5478   -5.9661 H         1 UNK         0.0612 
    135 H135       30.9055   -1.3392   -4.8362 H         1 UNK         0.0612 
    136 H136       33.8647   -4.1208   -3.6739 H         1 UNK         0.0624 
    137 H137       33.7422   -3.5212   -5.3104 H         1 UNK         0.0624 
@<TRIPOS>BOND
     1    1    2 1    
     2    1   72 1    
     3    1   73 1    
     4    1   74 1    
     5    2    3 2    
     6    2    4 am   BACKBONE|DICT|INTERRES
     7    4    5 1    
     8    4   75 1    
     9    5    6 1    
    10    5   35 1    
    11    5   76 1    
    12    6    7 1    
    13    6   77 1    
    14    6   78 1    
    15    7    8 1    
    16    8    9 1    
    17    8   79 1    
    18    8   80 1    
    19    9   10 ar   
    20    9   14 ar   
    21   10   11 ar   
    22   10   81 1    
    23   11   12 ar   
    24   11   71 1    
    25   12   13 ar   
    26   12   82 1    
    27   13   14 ar   
    28   13   15 1    
    29   14   83 1    
    30   15   16 1    
    31   15   84 1    
    32   15   85 1    
    33   16   17 1    
    34   17   18 1    
    35   17   86 1    
    36   17   87 1    
    37   18   19 1    
    38   18   37 1    
    39   18   88 1    
    40   19   20 am   BACKBONE|DICT|INTERRES
    41   19   89 1    
    42   20   21 2    
    43   20   22 1    
    44   22   23 1    
    45   22   24 1    
    46   22   90 1    
    47   23   91 1    
    48   23   92 1    
    49   23   93 1    
    50   24   25 am   BACKBONE|DICT|INTERRES
    51   24   94 1    
    52   25   26 2    
    53   25   27 1    
    54   27   28 1    
    55   27   29 1    
    56   27   95 1    
    57   28   96 1    
    58   28   97 1    
    59   28   98 1    
    60   29   30 am   BACKBONE|DICT|INTERRES
    61   29   99 1    
    62   30   31 2    
    63   30   32 1    
    64   32   33 1    
    65   32   34 1    
    66   32  100 1    
    67   33  101 1    
    68   33  102 1    
    69   33  103 1    
    70   34   35 am   BACKBONE|DICT|INTERRES
    71   34  104 1    
    72   35   36 2    
    73   37   38 2    
    74   37   39 am   BACKBONE|DICT|INTERRES
    75   39   40 1    
    76   39  105 1    
    77   40   41 1    
    78   40   42 1    
    79   40  106 1    
    80   41  107 1    
    81   41  108 1    
    82   41  109 1    
    83   42   43 2    
    84   42   44 am   BACKBONE|DICT|INTERRES
    85   44   45 1    
    86   44  110 1    
    87   45   46 1    
    88   45   47 1    
    89   45  111 1    
    90   46  112 1    
    91   46  113 1    
    92   46  114 1    
    93   47   48 2    
    94   47   49 am   BACKBONE|DICT|INTERRES
    95   49   50 1    
    96   49  115 1    
    97   50   51 1    
    98   50   52 1    
    99   50  116 1    
   100   51  117 1    
   101   51  118 1    
   102   51  119 1    
   103   52   53 2    
   104   52   54 am   BACKBONE|DICT|INTERRES
   105   54   55 1    
   106   54  120 1    
   107   55   56 1    
   108   55   57 1    
   109   55  121 1    
   110   56  122 1    
   111   56  123 1    
   112   56  124 1    
   113   57   58 2    
   114   57   59 am   BACKBONE|DICT|INTERRES
   115   59   60 1    
   116   59  125 1    
   117   60   61 1    
   118   60   62 1    
   119   60  126 1    
   120   61  127 1    
   121   61  128 1    
   122   61  129 1    
   123   62   63 2    
   124   62   64 am   BACKBONE|DICT|INTERRES
   125   64   65 1    
   126   64  130 1    
   127   65   66 1    
   128   65   69 1    
   129   65  131 1    
   130   66   67 am   BACKBONE|DICT|INTERRES
   131   66   68 2    
   132   67  132 1    
   133   67  133 1    
   134   69   70 1    
   135   69  134 1    
   136   69  135 1    
   137   70   71 1    
   138   71  136 1    
   139   71  137 1    
@<TRIPOS>SUBSTRUCTURE
     1 UNK         1 GROUP             0       ****    0 ROOT    
