@<TRIPOS>MOLECULE
3R137
137   139    1
SMALL
USER_CHARGES


@<TRIPOS>ATOM
      1 CA         29.2858   -0.1310   -1.1898 C.3       0 UNK        -0.2020 
      2 C          29.5317   -0.7450    0.1845 C.2       0 UNK         0.4855 
      3 O          30.0035   -0.0488    1.0813 O.2       0 UNK        -0.5197 
      4 N          29.2485   -2.0360    0.3998 N.am      1 UNK        -0.4892 
      5 CA         28.6098   -2.9755   -0.5328 C.3       1 UNK         0.0835 
      6 C6         28.8919   -4.4494   -0.1422 C.3       12 UNK        -0.0855 
      7 S7         30.6769   -4.7913    0.0611 S.3       12 UNK        -0.2931 
      8 C8         31.1179   -5.5771   -1.5213 C.3       12 UNK         0.0378 
      9 C9         30.8525   -4.6755   -2.7200 C.ar      12 UNK        -0.0802 
     10 C10        31.5646   -3.4810   -2.8865 C.ar      12 UNK        -0.0944 
     11 C11        31.3357   -2.6574   -3.9955 C.ar      12 UNK        -0.0787 
     12 C12        30.3805   -3.0514   -4.9401 C.ar      12 UNK        -0.0862 
     13 C13        29.6708   -4.2442   -4.7908 C.ar      12 UNK        -0.0733 
     14 C14        29.9048   -5.0508   -3.6763 C.ar      12 UNK        -0.0832 
     15 C15        28.6718   -4.6657   -5.8534 C.3       12 UNK         0.0240 
     16 S16        26.9893   -4.1289   -5.4233 S.3       12 UNK        -0.2522 
     17 C17        26.2702   -3.9191   -7.0894 C.3       12 UNK        -0.0967 
     18 CA         26.0965   -2.4537   -7.5724 C.3       5 UNK         0.0660 
     19 N          24.9280   -1.7878   -6.9937 N.am      5 UNK        -0.4015 
     20 C          24.3078   -0.7543   -7.5833 C.2       4 UNK         0.4946 
     21 O          24.6573   -0.2705   -8.6618 O.2       4 UNK        -0.5353 
     22 CA         23.1098   -0.1434   -6.8392 C.3       4 UNK         0.0277 
     23 CB         21.8634   -1.0316   -6.9855 C.3       4 UNK        -0.1981 
     24 N          23.3823    0.0994   -5.4216 N.am      4 UNK        -0.4209 
     25 C          24.2847    0.9800   -4.9668 C.2       3 UNK         0.4942 
     26 O          24.9856    1.6833   -5.6931 O.2       3 UNK        -0.5208 
     27 CA         24.4578    1.0720   -3.4416 C.3       3 UNK         0.0250 
     28 CB         23.4223    2.0352   -2.8393 C.3       3 UNK        -0.1990 
     29 N          24.3991   -0.2164   -2.7394 N.am      3 UNK        -0.4232 
     30 C          25.1967   -1.2618   -2.9954 C.2       2 UNK         0.4993 
     31 O          25.9847   -1.3086   -3.9417 O.2       2 UNK        -0.5286 
     32 CA         25.1086   -2.4583   -2.0436 C.3       2 UNK         0.0209 
     33 CB         24.3130   -3.6085   -2.6816 C.3       2 UNK        -0.1931 
     34 N          26.4774   -2.8951   -1.7612 N.am      2 UNK        -0.4546 
     35 C          27.0921   -2.7040   -0.5879 C.2       1 UNK         0.5154 
     36 O          26.5097   -2.3187    0.4299 O.2       1 UNK        -0.5181 
     37 C          27.3613   -1.5824   -7.4363 C.2       5 UNK         0.5014 
     38 O          28.1669   -1.5536   -8.3642 O.2       5 UNK        -0.5248 
     39 N          27.4948   -0.8549   -6.3174 N.am      6 UNK        -0.4434 
     40 CA         28.5805    0.0907   -6.0581 C.3       6 UNK         0.0363 
     41 CB         28.5125    0.5510   -4.5981 C.3       6 UNK        -0.1936 
     42 C          28.5903    1.2825   -7.0235 C.2       6 UNK         0.5081 
     43 O          29.6703    1.7042   -7.4378 O.2       6 UNK        -0.5248 
     44 N          27.4047    1.7797   -7.4014 N.am      7 UNK        -0.4718 
     45 CA         27.2399    2.7990   -8.4393 C.3       7 UNK         0.0273 
     46 CB         25.7930    3.3165   -8.4378 C.3       7 UNK        -0.1935 
     47 C          27.6332    2.2839   -9.8337 C.2       7 UNK         0.5018 
     48 O          28.3022    3.0057  -10.5730 O.2       7 UNK        -0.5186 
     49 N          27.2348    1.0445  -10.1572 N.am      8 UNK        -0.4240 
     50 CA         27.5578    0.3743  -11.4201 C.3       8 UNK         0.0235 
     51 CB         26.6903   -0.8855  -11.5745 C.3       8 UNK        -0.2000 
     52 C          29.0524    0.0322  -11.5507 C.2       8 UNK         0.4941 
     53 O          29.6397    0.2768  -12.6051 O.2       8 UNK        -0.5273 
     54 N          29.6415   -0.5138  -10.4784 N.am      9 UNK        -0.4262 
     55 CA         31.0576   -0.8822  -10.3908 C.3       9 UNK         0.0264 
     56 CB         31.2360   -1.8950   -9.2481 C.3       9 UNK        -0.1955 
     57 C          32.0037    0.3177  -10.1977 C.2       9 UNK         0.5031 
     58 O          33.2089    0.1561  -10.3951 O.2       9 UNK        -0.5390 
     59 N          31.4525    1.4796   -9.8159 N.am      10 UNK        -0.4204 
     60 CA         32.1364    2.7371   -9.4973 C.3       10 UNK         0.0237 
     61 CB         32.8594    3.3145  -10.7336 C.3       10 UNK        -0.1985 
     62 C          33.0426    2.6057   -8.2579 C.2       10 UNK         0.4970 
     63 O          34.2116    2.9953   -8.2979 O.2       10 UNK        -0.4914 
     64 N          32.4690    2.0668   -7.1773 N.am      11 UNK        -0.4285 
     65 CA         33.1019    1.9006   -5.8595 C.3       11 UNK         0.1007 
     66 C          32.2218    2.4045   -4.6806 C.2       11 UNK         0.5703 
     67 N          31.1200    3.1036   -4.9283 N.am      11 UNK        -0.7361 
     68 O          32.5581    2.1913   -3.5185 O.2       11 UNK        -0.4986 
     69 C69        33.6874    0.4756   -5.6499 C.3       12 UNK        -0.0947 
     70 S70        32.4961   -0.8908   -5.8660 S.3       12 UNK        -0.2240 
     71 C71        32.1169   -1.3487   -4.1387 C.3       12 UNK         0.0194 
     72 H72        29.6423    0.8987   -1.2190 H         1 UNK         0.0906 
     73 H73        29.8226   -0.6839   -1.9590 H         1 UNK         0.0906 
     74 H74        28.2234   -0.1207   -1.4310 H         1 UNK         0.0906 
     75 H75        29.4222   -2.4152    1.3193 H         1 UNK         0.3140 
     76 H76        29.0209   -2.8126   -1.5303 H         1 UNK         0.1085 
     77 H77        28.4750   -5.1319   -0.8855 H         1 UNK         0.0836 
     78 H78        28.4002   -4.6955    0.8012 H         1 UNK         0.0836 
     79 H79        32.1773   -5.8365   -1.5014 H         1 UNK         0.0731 
     80 H80        30.5757   -6.5198   -1.6113 H         1 UNK         0.0731 
     81 H81        32.2961   -3.1929   -2.1435 H         1 UNK         0.1312 
     82 H82        30.1924   -2.4438   -5.8110 H         1 UNK         0.1406 
     83 H83        29.3543   -5.9752   -3.5623 H         1 UNK         0.1631 
     84 H84        28.6839   -5.7491   -5.9810 H         1 UNK         0.0717 
     85 H85        28.9682   -4.2406   -6.8140 H         1 UNK         0.0717 
     86 H86        26.8792   -4.4658   -7.8115 H         1 UNK         0.0934 
     87 H87        25.3043   -4.4264   -7.1036 H         1 UNK         0.0934 
     88 H88        25.9052   -2.5266   -8.6457 H         1 UNK         0.0739 
     89 H89        24.6356   -2.0921   -6.0763 H         1 UNK         0.3093 
     90 H90        22.8941    0.8210   -7.3048 H         1 UNK         0.0818 
     91 H91        20.9852   -0.5569   -6.5474 H         1 UNK         0.0819 
     92 H92        21.6381   -1.2156   -8.0370 H         1 UNK         0.0819 
     93 H93        21.9948   -2.0023   -6.5058 H         1 UNK         0.0819 
     94 H94        22.8545   -0.4375   -4.7491 H         1 UNK         0.3041 
     95 H95        25.4499    1.4894   -3.2582 H         1 UNK         0.0784 
     96 H96        23.4590    3.0068   -3.3346 H         1 UNK         0.0793 
     97 H97        22.4055    1.6546   -2.9438 H         1 UNK         0.0793 
     98 H98        23.6096    2.2086   -1.7794 H         1 UNK         0.0793 
     99 H99        23.7672   -0.2674   -1.9529 H         1 UNK         0.3024 
    100 H100       24.5968   -2.1523   -1.1283 H         1 UNK         0.1171 
    101 H101       23.2810   -3.3106   -2.8706 H         1 UNK         0.0786 
    102 H102       24.2840   -4.4787   -2.0256 H         1 UNK         0.0786 
    103 H103       24.7387   -3.9239   -3.6333 H         1 UNK         0.0786 
    104 H104       27.0167   -3.1592   -2.5760 H         1 UNK         0.2977 
    105 H105       26.8224   -0.9869   -5.5629 H         1 UNK         0.3127 
    106 H106       29.5237   -0.4323   -6.2053 H         1 UNK         0.0770 
    107 H107       27.6133    1.1343   -4.3998 H         1 UNK         0.0814 
    108 H108       29.3719    1.1646   -4.3353 H         1 UNK         0.0814 
    109 H109       28.5113   -0.3069   -3.9277 H         1 UNK         0.0814 
    110 H110       26.5593    1.4377   -6.9540 H         1 UNK         0.2983 
    111 H111       27.9005    3.6347   -8.1977 H         1 UNK         0.0947 
    112 H112       25.6466    4.0738   -9.2091 H         1 UNK         0.0806 
    113 H113       25.5390    3.7745   -7.4817 H         1 UNK         0.0806 
    114 H114       25.0764    2.5154   -8.6235 H         1 UNK         0.0806 
    115 H115       26.6681    0.5296   -9.4940 H         1 UNK         0.3000 
    116 H116       27.3043    1.0588  -12.2327 H         1 UNK         0.0850 
    117 H117       26.8783   -1.3726  -12.5322 H         1 UNK         0.0810 
    118 H118       25.6280   -0.6427  -11.5363 H         1 UNK         0.0810 
    119 H119       26.8931   -1.6169  -10.7921 H         1 UNK         0.0810 
    120 H120       29.0649   -0.7498   -9.6697 H         1 UNK         0.3040 
    121 H121       31.3431   -1.3708  -11.3247 H         1 UNK         0.0766 
    122 H122       32.2795   -2.1947   -9.1425 H         1 UNK         0.0812 
    123 H123       30.6532   -2.7991   -9.4243 H         1 UNK         0.0812 
    124 H124       30.9176   -1.4760   -8.2936 H         1 UNK         0.0812 
    125 H125       30.4586    1.4747   -9.6250 H         1 UNK         0.3205 
    126 H126       31.3502    3.4426   -9.2236 H         1 UNK         0.0754 
    127 H127       33.2562    4.3083  -10.5228 H         1 UNK         0.0769 
    128 H128       32.1790    3.4100  -11.5799 H         1 UNK         0.0769 
    129 H129       33.6978    2.6912  -11.0456 H         1 UNK         0.0769 
    130 H130       31.4907    1.7893   -7.2345 H         1 UNK         0.2981 
    131 H131       33.9538    2.5812   -5.8179 H         1 UNK         0.0541 
    132 H132       30.8250    3.2871   -5.8742 H         1 UNK         0.3459 
    133 H133       30.5762    3.4489   -4.1543 H         1 UNK         0.3459 
    134 H134       34.1723    0.3931   -4.6759 H         1 UNK         0.0612 
    135 H135       34.4839    0.3156   -6.3779 H         1 UNK         0.0612 
    136 H136       33.0556   -1.4216   -3.5876 H         1 UNK         0.0624 
    137 H137       31.5445   -0.5424   -3.6799 H         1 UNK         0.0624 
@<TRIPOS>BOND
     1    1    2 1    
     2    1   72 1    
     3    1   73 1    
     4    1   74 1    
     5    2    3 2    
     6    2    4 am   BACKBONE|DICT|INTERRES
     7    4    5 1    
     8    4   75 1    
     9    5    6 1    
    10    5   35 1    
    11    5   76 1    
    12    6    7 1    
    13    6   77 1    
    14    6   78 1    
    15    7    8 1    
    16    8    9 1    
    17    8   79 1    
    18    8   80 1    
    19    9   10 ar   
    20    9   14 ar   
    21   10   11 ar   
    22   10   81 1    
    23   11   12 ar   
    24   11   71 1    
    25   12   13 ar   
    26   12   82 1    
    27   13   14 ar   
    28   13   15 1    
    29   14   83 1    
    30   15   16 1    
    31   15   84 1    
    32   15   85 1    
    33   16   17 1    
    34   17   18 1    
    35   17   86 1    
    36   17   87 1    
    37   18   19 1    
    38   18   37 1    
    39   18   88 1    
    40   19   20 am   BACKBONE|DICT|INTERRES
    41   19   89 1    
    42   20   21 2    
    43   20   22 1    
    44   22   23 1    
    45   22   24 1    
    46   22   90 1    
    47   23   91 1    
    48   23   92 1    
    49   23   93 1    
    50   24   25 am   BACKBONE|DICT|INTERRES
    51   24   94 1    
    52   25   26 2    
    53   25   27 1    
    54   27   28 1    
    55   27   29 1    
    56   27   95 1    
    57   28   96 1    
    58   28   97 1    
    59   28   98 1    
    60   29   30 am   BACKBONE|DICT|INTERRES
    61   29   99 1    
    62   30   31 2    
    63   30   32 1    
    64   32   33 1    
    65   32   34 1    
    66   32  100 1    
    67   33  101 1    
    68   33  102 1    
    69   33  103 1    
    70   34   35 am   BACKBONE|DICT|INTERRES
    71   34  104 1    
    72   35   36 2    
    73   37   38 2    
    74   37   39 am   BACKBONE|DICT|INTERRES
    75   39   40 1    
    76   39  105 1    
    77   40   41 1    
    78   40   42 1    
    79   40  106 1    
    80   41  107 1    
    81   41  108 1    
    82   41  109 1    
    83   42   43 2    
    84   42   44 am   BACKBONE|DICT|INTERRES
    85   44   45 1    
    86   44  110 1    
    87   45   46 1    
    88   45   47 1    
    89   45  111 1    
    90   46  112 1    
    91   46  113 1    
    92   46  114 1    
    93   47   48 2    
    94   47   49 am   BACKBONE|DICT|INTERRES
    95   49   50 1    
    96   49  115 1    
    97   50   51 1    
    98   50   52 1    
    99   50  116 1    
   100   51  117 1    
   101   51  118 1    
   102   51  119 1    
   103   52   53 2    
   104   52   54 am   BACKBONE|DICT|INTERRES
   105   54   55 1    
   106   54  120 1    
   107   55   56 1    
   108   55   57 1    
   109   55  121 1    
   110   56  122 1    
   111   56  123 1    
   112   56  124 1    
   113   57   58 2    
   114   57   59 am   BACKBONE|DICT|INTERRES
   115   59   60 1    
   116   59  125 1    
   117   60   61 1    
   118   60   62 1    
   119   60  126 1    
   120   61  127 1    
   121   61  128 1    
   122   61  129 1    
   123   62   63 2    
   124   62   64 am   BACKBONE|DICT|INTERRES
   125   64   65 1    
   126   64  130 1    
   127   65   66 1    
   128   65   69 1    
   129   65  131 1    
   130   66   67 am   BACKBONE|DICT|INTERRES
   131   66   68 2    
   132   67  132 1    
   133   67  133 1    
   134   69   70 1    
   135   69  134 1    
   136   69  135 1    
   137   70   71 1    
   138   71  136 1    
   139   71  137 1    
@<TRIPOS>SUBSTRUCTURE
     1 UNK         1 GROUP             0       ****    0 ROOT    
