@<TRIPOS>MOLECULE
3R137
137   139    1
SMALL
USER_CHARGES


@<TRIPOS>ATOM
      1 CA         25.2402   -4.3841   -1.1826 C.3       0 UNK        -0.2020 
      2 C          26.2490   -3.3340   -1.6204 C.2       0 UNK         0.4855 
      3 O          26.1010   -2.7648   -2.7015 O.2       0 UNK        -0.5197 
      4 N          27.2525   -3.0599   -0.7731 N.am      1 UNK        -0.4892 
      5 CA         28.4064   -2.1730   -1.0108 C.3       1 UNK         0.0835 
      6 C6         29.4828   -2.8201   -1.9214 C.3       12 UNK        -0.0855 
      7 S7         30.0883   -4.4111   -1.2544 S.3       12 UNK        -0.2931 
      8 C8         31.6715   -4.6159   -2.1471 C.3       12 UNK         0.0378 
      9 C9         31.5606   -4.6343   -3.6727 C.ar      12 UNK        -0.0802 
     10 C10        32.6582   -4.2243   -4.4361 C.ar      12 UNK        -0.0944 
     11 C11        32.5859   -4.1888   -5.8317 C.ar      12 UNK        -0.0787 
     12 C12        31.3964   -4.5546   -6.4679 C.ar      12 UNK        -0.0862 
     13 C13        30.2921   -4.9760   -5.7217 C.ar      12 UNK        -0.0733 
     14 C14        30.3949   -5.0474   -4.3294 C.ar      12 UNK        -0.0832 
     15 C15        28.9805   -5.3177   -6.4228 C.3       12 UNK         0.0240 
     16 S16        27.5247   -4.5142   -5.6622 S.3       12 UNK        -0.2522 
     17 C17        28.0006   -2.7511   -5.6791 C.3       12 UNK        -0.0967 
     18 CA         27.2581   -1.9472   -6.7652 C.3       5 UNK         0.0660 
     19 N          25.8112   -1.9238   -6.5458 N.am      5 UNK        -0.4015 
     20 C          24.9216   -1.3617   -7.3747 C.2       4 UNK         0.4946 
     21 O          25.2233   -0.8583   -8.4573 O.2       4 UNK        -0.5353 
     22 CA         23.4604   -1.2909   -6.8951 C.3       4 UNK         0.0277 
     23 CB         22.6625   -2.4869   -7.4377 C.3       4 UNK        -0.1981 
     24 N          23.2935   -1.2134   -5.4364 N.am      4 UNK        -0.4209 
     25 C          23.8456   -0.2911   -4.6326 C.2       3 UNK         0.4942 
     26 O          24.6079    0.5856   -5.0421 O.2       3 UNK        -0.5208 
     27 CA         23.5043   -0.3566   -3.1322 C.3       3 UNK         0.0250 
     28 CB         22.8476   -1.6831   -2.6952 C.3       3 UNK        -0.1990 
     29 N          24.7131   -0.1308   -2.3358 N.am      3 UNK        -0.4232 
     30 C          25.1017    1.0593   -1.8529 C.2       2 UNK         0.4993 
     31 O          24.4520    2.0957   -2.0027 O.2       2 UNK        -0.5286 
     32 CA         26.4094    1.1227   -1.0380 C.3       2 UNK         0.0209 
     33 CB         26.1818    1.8259    0.3131 C.3       2 UNK        -0.1931 
     34 N          26.9898   -0.1969   -0.7775 N.am      2 UNK        -0.4546 
     35 C          27.9869   -0.7579   -1.4747 C.2       1 UNK         0.5154 
     36 O          28.5340   -0.2216   -2.4398 O.2       1 UNK        -0.5181 
     37 C          27.8633   -0.5338   -6.8716 C.2       5 UNK         0.5014 
     38 O          28.7390   -0.3359   -7.7100 O.2       5 UNK        -0.5248 
     39 N          27.3739    0.4194   -6.0615 N.am      6 UNK        -0.4434 
     40 CA         27.8284    1.8135   -6.0582 C.3       6 UNK         0.0363 
     41 CB         27.3965    2.4977   -4.7523 C.3       6 UNK        -0.1936 
     42 C          27.3441    2.6121   -7.2801 C.2       6 UNK         0.5081 
     43 O          27.9579    3.6241   -7.6201 O.2       6 UNK        -0.5248 
     44 N          26.2604    2.1556   -7.9230 N.am      7 UNK        -0.4718 
     45 CA         25.8070    2.6723   -9.2143 C.3       7 UNK         0.0273 
     46 CB         24.3062    2.3893   -9.3907 C.3       7 UNK        -0.1935 
     47 C          26.6235    2.0691  -10.3695 C.2       7 UNK         0.5018 
     48 O          26.9125    2.7756  -11.3359 O.2       7 UNK        -0.5186 
     49 N          26.9765    0.7808  -10.2505 N.am      8 UNK        -0.4240 
     50 CA         27.7533    0.0323  -11.2381 C.3       8 UNK         0.0235 
     51 CB         27.6431   -1.4733  -10.9461 C.3       8 UNK        -0.2000 
     52 C          29.2285    0.4615  -11.3201 C.2       8 UNK         0.4941 
     53 O          29.7509    0.5720  -12.4308 O.2       8 UNK        -0.5273 
     54 N          29.8813    0.6778  -10.1705 N.am      9 UNK        -0.4262 
     55 CA         31.3045    1.0041  -10.0757 C.3       9 UNK         0.0264 
     56 CB         32.1274   -0.2977  -10.1276 C.3       9 UNK        -0.1955 
     57 C          31.5958    1.7822   -8.7870 C.2       9 UNK         0.5031 
     58 O          30.7835    1.7804   -7.8632 O.2       9 UNK        -0.5390 
     59 N          32.7806    2.4049   -8.7213 N.am      10 UNK        -0.4204 
     60 CA         33.2530    3.1863   -7.5692 C.3       10 UNK         0.0237 
     61 CB         34.5831    3.8671   -7.9326 C.3       10 UNK        -0.1985 
     62 C          33.4012    2.3801   -6.2623 C.2       10 UNK         0.4970 
     63 O          33.3563    2.9736   -5.1840 O.2       10 UNK        -0.4914 
     64 N          33.5732    1.0580   -6.3794 N.am      11 UNK        -0.4285 
     65 CA         33.6096    0.1031   -5.2640 C.3       11 UNK         0.1007 
     66 C          32.2321   -0.1941   -4.6000 C.2       11 UNK         0.5703 
     67 N          31.1049    0.2205   -5.1673 N.am      11 UNK        -0.7361 
     68 O          32.1946   -0.7866   -3.5250 O.2       11 UNK        -0.4986 
     69 C69        34.3778   -1.1873   -5.6531 C.3       12 UNK        -0.0947 
     70 S70        33.7220   -2.0193   -7.1422 S.3       12 UNK        -0.2240 
     71 C71        33.7927   -3.7716   -6.6592 C.3       12 UNK         0.0194 
     72 H72        25.0883   -5.1103   -1.9807 H         1 UNK         0.0906 
     73 H73        25.5720   -4.9233   -0.2955 H         1 UNK         0.0906 
     74 H74        24.2820   -3.9164   -0.9594 H         1 UNK         0.0906 
     75 H75        27.2894   -3.5630    0.1030 H         1 UNK         0.3140 
     76 H76        28.8717   -2.0189   -0.0356 H         1 UNK         0.1085 
     77 H77        30.3369   -2.1505   -2.0397 H         1 UNK         0.0836 
     78 H78        29.0831   -2.9874   -2.9207 H         1 UNK         0.0836 
     79 H79        32.3402   -3.8112   -1.8363 H         1 UNK         0.0731 
     80 H80        32.1359   -5.5476   -1.8222 H         1 UNK         0.0731 
     81 H81        33.5717   -3.9260   -3.9404 H         1 UNK         0.1312 
     82 H82        31.3322   -4.5037   -7.5464 H         1 UNK         0.1406 
     83 H83        29.5403   -5.3824   -3.7585 H         1 UNK         0.1631 
     84 H84        28.8390   -6.3988   -6.4012 H         1 UNK         0.0717 
     85 H85        29.0195   -5.0301   -7.4746 H         1 UNK         0.0717 
     86 H86        27.7887   -2.3304   -4.6951 H         1 UNK         0.0934 
     87 H87        29.0803   -2.6600   -5.8096 H         1 UNK         0.0934 
     88 H88        27.4279   -2.4394   -7.7249 H         1 UNK         0.0739 
     89 H89        25.4853   -2.3232   -5.6771 H         1 UNK         0.3093 
     90 H90        23.0339   -0.3775   -7.3148 H         1 UNK         0.0818 
     91 H91        21.6008   -2.3949   -7.2081 H         1 UNK         0.0819 
     92 H92        22.7512   -2.5544   -8.5232 H         1 UNK         0.0819 
     93 H93        23.0172   -3.4313   -7.0229 H         1 UNK         0.0819 
     94 H94        22.6851   -1.9018   -5.0172 H         1 UNK         0.3041 
     95 H95        22.7845    0.4418   -2.9406 H         1 UNK         0.0784 
     96 H96        21.8617   -1.8052   -3.1455 H         1 UNK         0.0793 
     97 H97        23.4490   -2.5504   -2.9687 H         1 UNK         0.0793 
     98 H98        22.7030   -1.7104   -1.6149 H         1 UNK         0.0793 
     99 H99        25.3412   -0.9235   -2.2512 H         1 UNK         0.3024 
    100 H100       27.1118    1.7274   -1.6150 H         1 UNK         0.1171 
    101 H101       25.8136    2.8430    0.1716 H         1 UNK         0.0786 
    102 H102       27.1084    1.8989    0.8830 H         1 UNK         0.0786 
    103 H103       25.4510    1.2968    0.9259 H         1 UNK         0.0786 
    104 H104       26.5771   -0.7304   -0.0250 H         1 UNK         0.2977 
    105 H105       26.5791    0.2094   -5.4664 H         1 UNK         0.3127 
    106 H106       28.9184    1.8138   -6.0838 H         1 UNK         0.0770 
    107 H107       26.3118    2.5408   -4.6521 H         1 UNK         0.0814 
    108 H108       27.7979    1.9739   -3.8862 H         1 UNK         0.0814 
    109 H109       27.7676    3.5224   -4.7099 H         1 UNK         0.0814 
    110 H110       25.8082    1.3210   -7.5747 H         1 UNK         0.2983 
    111 H111       25.9483    3.7555   -9.2350 H         1 UNK         0.0947 
    112 H112       23.9403    2.8135  -10.3267 H         1 UNK         0.0806 
    113 H113       23.7217    2.8321   -8.5841 H         1 UNK         0.0806 
    114 H114       24.0901    1.3212   -9.4139 H         1 UNK         0.0806 
    115 H115       26.6411    0.2616   -9.4461 H         1 UNK         0.3000 
    116 H116       27.3037    0.2157  -12.2165 H         1 UNK         0.0850 
    117 H117       28.1570   -2.0566  -11.7112 H         1 UNK         0.0810 
    118 H118       26.6032   -1.8007  -10.9306 H         1 UNK         0.0810 
    119 H119       28.0899   -1.7319   -9.9861 H         1 UNK         0.0810 
    120 H120       29.4062    0.5598   -9.2750 H         1 UNK         0.3040 
    121 H121       31.5832    1.6450  -10.9150 H         1 UNK         0.0766 
    122 H122       33.1959   -0.1043  -10.0279 H         1 UNK         0.0812 
    123 H123       31.9842   -0.8206  -11.0733 H         1 UNK         0.0812 
    124 H124       31.8402   -0.9790   -9.3255 H         1 UNK         0.0812 
    125 H125       33.4007    2.3548   -9.5173 H         1 UNK         0.3205 
    126 H126       32.5117    3.9653   -7.3789 H         1 UNK         0.0754 
    127 H127       34.9463    4.4812   -7.1071 H         1 UNK         0.0769 
    128 H128       34.4712    4.5240   -8.7956 H         1 UNK         0.0769 
    129 H129       35.3608    3.1375   -8.1622 H         1 UNK         0.0769 
    130 H130       33.5826    0.6485   -7.3010 H         1 UNK         0.2981 
    131 H131       34.1970    0.5750   -4.4740 H         1 UNK         0.0541 
    132 H132       31.1064    0.7030   -6.0586 H         1 UNK         0.3459 
    133 H133       30.2352    0.0378   -4.6931 H         1 UNK         0.3459 
    134 H134       34.4038   -1.8824   -4.8134 H         1 UNK         0.0612 
    135 H135       35.4208   -0.9386   -5.8541 H         1 UNK         0.0612 
    136 H136       34.7207   -3.9696   -6.1205 H         1 UNK         0.0624 
    137 H137       33.8360   -4.3778   -7.5652 H         1 UNK         0.0624 
@<TRIPOS>BOND
     1    1    2 1    
     2    1   72 1    
     3    1   73 1    
     4    1   74 1    
     5    2    3 2    
     6    2    4 am   BACKBONE|DICT|INTERRES
     7    4    5 1    
     8    4   75 1    
     9    5    6 1    
    10    5   35 1    
    11    5   76 1    
    12    6    7 1    
    13    6   77 1    
    14    6   78 1    
    15    7    8 1    
    16    8    9 1    
    17    8   79 1    
    18    8   80 1    
    19    9   10 ar   
    20    9   14 ar   
    21   10   11 ar   
    22   10   81 1    
    23   11   12 ar   
    24   11   71 1    
    25   12   13 ar   
    26   12   82 1    
    27   13   14 ar   
    28   13   15 1    
    29   14   83 1    
    30   15   16 1    
    31   15   84 1    
    32   15   85 1    
    33   16   17 1    
    34   17   18 1    
    35   17   86 1    
    36   17   87 1    
    37   18   19 1    
    38   18   37 1    
    39   18   88 1    
    40   19   20 am   BACKBONE|DICT|INTERRES
    41   19   89 1    
    42   20   21 2    
    43   20   22 1    
    44   22   23 1    
    45   22   24 1    
    46   22   90 1    
    47   23   91 1    
    48   23   92 1    
    49   23   93 1    
    50   24   25 am   BACKBONE|DICT|INTERRES
    51   24   94 1    
    52   25   26 2    
    53   25   27 1    
    54   27   28 1    
    55   27   29 1    
    56   27   95 1    
    57   28   96 1    
    58   28   97 1    
    59   28   98 1    
    60   29   30 am   BACKBONE|DICT|INTERRES
    61   29   99 1    
    62   30   31 2    
    63   30   32 1    
    64   32   33 1    
    65   32   34 1    
    66   32  100 1    
    67   33  101 1    
    68   33  102 1    
    69   33  103 1    
    70   34   35 am   BACKBONE|DICT|INTERRES
    71   34  104 1    
    72   35   36 2    
    73   37   38 2    
    74   37   39 am   BACKBONE|DICT|INTERRES
    75   39   40 1    
    76   39  105 1    
    77   40   41 1    
    78   40   42 1    
    79   40  106 1    
    80   41  107 1    
    81   41  108 1    
    82   41  109 1    
    83   42   43 2    
    84   42   44 am   BACKBONE|DICT|INTERRES
    85   44   45 1    
    86   44  110 1    
    87   45   46 1    
    88   45   47 1    
    89   45  111 1    
    90   46  112 1    
    91   46  113 1    
    92   46  114 1    
    93   47   48 2    
    94   47   49 am   BACKBONE|DICT|INTERRES
    95   49   50 1    
    96   49  115 1    
    97   50   51 1    
    98   50   52 1    
    99   50  116 1    
   100   51  117 1    
   101   51  118 1    
   102   51  119 1    
   103   52   53 2    
   104   52   54 am   BACKBONE|DICT|INTERRES
   105   54   55 1    
   106   54  120 1    
   107   55   56 1    
   108   55   57 1    
   109   55  121 1    
   110   56  122 1    
   111   56  123 1    
   112   56  124 1    
   113   57   58 2    
   114   57   59 am   BACKBONE|DICT|INTERRES
   115   59   60 1    
   116   59  125 1    
   117   60   61 1    
   118   60   62 1    
   119   60  126 1    
   120   61  127 1    
   121   61  128 1    
   122   61  129 1    
   123   62   63 2    
   124   62   64 am   BACKBONE|DICT|INTERRES
   125   64   65 1    
   126   64  130 1    
   127   65   66 1    
   128   65   69 1    
   129   65  131 1    
   130   66   67 am   BACKBONE|DICT|INTERRES
   131   66   68 2    
   132   67  132 1    
   133   67  133 1    
   134   69   70 1    
   135   69  134 1    
   136   69  135 1    
   137   70   71 1    
   138   71  136 1    
   139   71  137 1    
@<TRIPOS>SUBSTRUCTURE
     1 UNK         1 GROUP             0       ****    0 ROOT    
