@<TRIPOS>MOLECULE
3R137
137   139    1
SMALL
USER_CHARGES


@<TRIPOS>ATOM
      1 CA         25.2726   -2.8916    1.8910 C.3       0 UNK        -0.2020 
      2 C          26.1980   -2.8914    0.6835 C.2       0 UNK         0.4855 
      3 O          26.3558   -1.8588    0.0343 O.2       0 UNK        -0.5197 
      4 N          26.8168   -4.0395    0.3813 N.am      1 UNK        -0.4892 
      5 CA         27.6748   -4.2419   -0.7899 C.3       1 UNK         0.0835 
      6 C6         28.5893   -5.4781   -0.5786 C.3       12 UNK        -0.0855 
      7 S7         29.6685   -5.9459   -1.9795 S.3       12 UNK        -0.2931 
      8 C8         31.1113   -4.8566   -1.7615 C.3       12 UNK         0.0378 
      9 C9         30.9459   -3.5578   -2.5366 C.ar      12 UNK        -0.0802 
     10 C10        31.1715   -3.5377   -3.9172 C.ar      12 UNK        -0.0944 
     11 C11        31.0365   -2.3496   -4.6406 C.ar      12 UNK        -0.0787 
     12 C12        30.6597   -1.1830   -3.9748 C.ar      12 UNK        -0.0862 
     13 C13        30.4055   -1.1912   -2.6020 C.ar      12 UNK        -0.0733 
     14 C14        30.5739   -2.3786   -1.8829 C.ar      12 UNK        -0.0832 
     15 C15        29.9536    0.0811   -1.8979 C.3       12 UNK         0.0240 
     16 S16        28.2423    0.5391   -2.3418 S.3       12 UNK        -0.2522 
     17 C17        28.4842    1.5324   -3.8549 C.3       12 UNK        -0.0967 
     18 CA         27.8585    0.8602   -5.1126 C.3       5 UNK         0.0660 
     19 N          26.3934    0.8265   -5.1070 N.am      5 UNK        -0.4015 
     20 C          25.5602    1.8780   -5.0947 C.2       4 UNK         0.4946 
     21 O          25.9422    3.0491   -5.1238 O.2       4 UNK        -0.5353 
     22 CA         24.0431    1.6032   -5.0592 C.3       4 UNK         0.0277 
     23 CB         23.3814    2.0421   -6.3746 C.3       4 UNK        -0.1981 
     24 N          23.6986    0.2033   -4.8103 N.am      4 UNK        -0.4209 
     25 C          23.7345   -0.4100   -3.6201 C.2       3 UNK         0.4942 
     26 O          24.0098    0.1562   -2.5625 O.2       3 UNK        -0.5208 
     27 CA         23.4093   -1.9169   -3.6131 C.3       3 UNK         0.0250 
     28 CB         22.3885   -2.3248   -4.6992 C.3       3 UNK        -0.1990 
     29 N          24.6061   -2.7624   -3.7025 N.am      3 UNK        -0.4232 
     30 C          25.5842   -2.7173   -4.6188 C.2       2 UNK         0.4993 
     31 O          25.6324   -1.8858   -5.5263 O.2       2 UNK        -0.5286 
     32 CA         26.6969   -3.7766   -4.4982 C.3       2 UNK         0.0209 
     33 CB         27.7856   -3.6073   -5.5740 C.3       2 UNK        -0.1931 
     34 N          27.3339   -3.7751   -3.1789 N.am      2 UNK        -0.4546 
     35 C          26.8169   -4.3210   -2.0704 C.2       1 UNK         0.5154 
     36 O          25.7108   -4.8695   -2.0372 O.2       1 UNK        -0.5181 
     37 C          28.3810    1.4365   -6.4426 C.2       5 UNK         0.5014 
     38 O          28.4674    0.6912   -7.4178 O.2       5 UNK        -0.5248 
     39 N          28.7169    2.7353   -6.4686 N.am      6 UNK        -0.4434 
     40 CA         29.3437    3.4401   -7.5954 C.3       6 UNK         0.0363 
     41 CB         29.6517    4.8861   -7.1755 C.3       6 UNK        -0.1936 
     42 C          28.5386    3.4216   -8.9065 C.2       6 UNK         0.5081 
     43 O          29.1343    3.4961   -9.9814 O.2       6 UNK        -0.5248 
     44 N          27.2073    3.3202   -8.8040 N.am      7 UNK        -0.4718 
     45 CA         26.3134    3.1742   -9.9548 C.3       7 UNK         0.0273 
     46 CB         24.9227    3.7133   -9.5862 C.3       7 UNK        -0.1935 
     47 C          26.2180    1.7230  -10.4637 C.2       7 UNK         0.5018 
     48 O          25.7502    1.5226  -11.5854 O.2       7 UNK        -0.5186 
     49 N          26.6344    0.7430   -9.6481 N.am      8 UNK        -0.4240 
     50 CA         26.6045   -0.6802   -9.9837 C.3       8 UNK         0.0235 
     51 CB         26.2571   -1.5044   -8.7324 C.3       8 UNK        -0.2000 
     52 C          27.9360   -1.1447  -10.5897 C.2       8 UNK         0.4941 
     53 O          27.9135   -1.8809  -11.5774 O.2       8 UNK        -0.5273 
     54 N          29.0651   -0.7159  -10.0093 N.am      9 UNK        -0.4262 
     55 CA         30.4140   -1.0718  -10.4506 C.3       9 UNK         0.0264 
     56 CB         30.7608   -2.5015   -9.9898 C.3       9 UNK        -0.1955 
     57 C          31.4298   -0.0530   -9.9206 C.2       9 UNK         0.5031 
     58 O          31.1060    0.7344   -9.0304 O.2       9 UNK        -0.5390 
     59 N          32.6560   -0.1068  -10.4608 N.am      10 UNK        -0.4204 
     60 CA         33.7696    0.8106  -10.1756 C.3       10 UNK         0.0237 
     61 CB         34.9766    0.4208  -11.0450 C.3       10 UNK        -0.1985 
     62 C          34.1882    0.9139   -8.6955 C.2       10 UNK         0.4970 
     63 O          34.7499    1.9386   -8.3058 O.2       10 UNK        -0.4914 
     64 N          33.8990   -0.1239   -7.9009 N.am      11 UNK        -0.4285 
     65 CA         34.0052   -0.1186   -6.4342 C.3       11 UNK         0.1007 
     66 C          33.0196    0.8431   -5.7063 C.2       11 UNK         0.5703 
     67 N          31.9718    1.3465   -6.3469 N.am      11 UNK        -0.7361 
     68 O          33.2245    1.1574   -4.5368 O.2       11 UNK        -0.4986 
     69 C69        33.9901   -1.5528   -5.8258 C.3       12 UNK        -0.0947 
     70 S70        32.9249   -2.7805   -6.6667 S.3       12 UNK        -0.2240 
     71 C71        31.2406   -2.3246   -6.1483 C.3       12 UNK         0.0194 
     72 H72        24.2609   -2.6237    1.5872 H         1 UNK         0.0906 
     73 H73        25.2339   -3.8666    2.3766 H         1 UNK         0.0906 
     74 H74        25.6127   -2.1610    2.6244 H         1 UNK         0.0906 
     75 H75        26.6190   -4.8656    0.9283 H         1 UNK         0.3140 
     76 H76        28.3070   -3.3597   -0.8757 H         1 UNK         0.1085 
     77 H77        29.2120   -5.3285    0.3049 H         1 UNK         0.0836 
     78 H78        27.9733   -6.3511   -0.3543 H         1 UNK         0.0836 
     79 H79        31.2873   -4.6637   -0.7022 H         1 UNK         0.0731 
     80 H80        31.9989   -5.3777   -2.1237 H         1 UNK         0.0731 
     81 H81        31.4509   -4.4478   -4.4304 H         1 UNK         0.1312 
     82 H82        30.5496   -0.2672   -4.5335 H         1 UNK         0.1406 
     83 H83        30.4080   -2.3860   -0.8140 H         1 UNK         0.1631 
     84 H84        30.6410    0.8976   -2.1235 H         1 UNK         0.0717 
     85 H85        29.9963   -0.0535   -0.8161 H         1 UNK         0.0717 
     86 H86        28.0541    2.5185   -3.6758 H         1 UNK         0.0934 
     87 H87        29.5520    1.7058   -3.9951 H         1 UNK         0.0934 
     88 H88        28.1669   -0.1860   -5.1129 H         1 UNK         0.0739 
     89 H89        25.9903   -0.1070   -5.1665 H         1 UNK         0.3093 
     90 H90        23.6281    2.2085   -4.2505 H         1 UNK         0.0818 
     91 H91        22.2993    1.9155   -6.3361 H         1 UNK         0.0819 
     92 H92        23.5725    3.0976   -6.5728 H         1 UNK         0.0819 
     93 H93        23.7566    1.4694   -7.2236 H         1 UNK         0.0819 
     94 H94        23.5116   -0.3680   -5.6222 H         1 UNK         0.3041 
     95 H95        22.9559   -2.1267   -2.6429 H         1 UNK         0.0784 
     96 H96        21.5023   -1.6893   -4.6660 H         1 UNK         0.0793 
     97 H97        22.8033   -2.2646   -5.7059 H         1 UNK         0.0793 
     98 H98        22.0508   -3.3502   -4.5483 H         1 UNK         0.0793 
     99 H99        24.7028   -3.4682   -2.9777 H         1 UNK         0.3024 
    100 H100       26.2259   -4.7496   -4.6564 H         1 UNK         0.1171 
    101 H101       27.3620   -3.6888   -6.5759 H         1 UNK         0.0786 
    102 H102       28.5559   -4.3737   -5.4855 H         1 UNK         0.0786 
    103 H103       28.2683   -2.6326   -5.5045 H         1 UNK         0.0786 
    104 H104       28.2445   -3.3389   -3.1258 H         1 UNK         0.2977 
    105 H105       28.5151    3.2915   -5.6496 H         1 UNK         0.3127 
    106 H106       30.2906    2.9433   -7.8079 H         1 UNK         0.0770 
    107 H107       28.7443    5.4324   -6.9152 H         1 UNK         0.0814 
    108 H108       30.1399    5.4316   -7.9846 H         1 UNK         0.0814 
    109 H109       30.3233    4.9172   -6.3174 H         1 UNK         0.0814 
    110 H110       26.7946    3.2832   -7.8821 H         1 UNK         0.2983 
    111 H111       26.6960    3.7797  -10.7799 H         1 UNK         0.0947 
    112 H112       24.2523    3.6815  -10.4462 H         1 UNK         0.0806 
    113 H113       24.9718    4.7502   -9.2533 H         1 UNK         0.0806 
    114 H114       24.4610    3.1260   -8.7951 H         1 UNK         0.0806 
    115 H115       27.0938    0.9848   -8.7758 H         1 UNK         0.3000 
    116 H116       25.8210   -0.8633  -10.7224 H         1 UNK         0.0850 
    117 H117       26.1749   -2.5644   -8.9748 H         1 UNK         0.0810 
    118 H118       27.0145   -1.4109   -7.9539 H         1 UNK         0.0810 
    119 H119       25.3032   -1.1957   -8.3045 H         1 UNK         0.0810 
    120 H120       29.0262   -0.0958   -9.2017 H         1 UNK         0.3040 
    121 H121       30.4478   -1.0260  -11.5413 H         1 UNK         0.0766 
    122 H122       30.6616   -2.6054   -8.9112 H         1 UNK         0.0812 
    123 H123       31.7828   -2.7760  -10.2532 H         1 UNK         0.0812 
    124 H124       30.1051   -3.2386  -10.4532 H         1 UNK         0.0812 
    125 H125       32.8296   -0.8006  -11.1742 H         1 UNK         0.3205 
    126 H126       33.4417    1.8077  -10.4768 H         1 UNK         0.0754 
    127 H127       35.8137    1.1012  -10.8812 H         1 UNK         0.0769 
    128 H128       34.7332    0.4633  -12.1069 H         1 UNK         0.0769 
    129 H129       35.3274   -0.5871  -10.8191 H         1 UNK         0.0769 
    130 H130       33.4380   -0.9281   -8.2987 H         1 UNK         0.2981 
    131 H131       34.9904    0.2942   -6.2083 H         1 UNK         0.0541 
    132 H132       31.7692    1.0969   -7.3127 H         1 UNK         0.3459 
    133 H133       31.3828    2.0041   -5.8674 H         1 UNK         0.3459 
    134 H134       33.7561   -1.5421   -4.7595 H         1 UNK         0.0612 
    135 H135       35.0024   -1.9551   -5.8819 H         1 UNK         0.0612 
    136 H136       30.9916   -1.3477   -6.5658 H         1 UNK         0.0624 
    137 H137       30.5433   -3.0309   -6.5989 H         1 UNK         0.0624 
@<TRIPOS>BOND
     1    1    2 1    
     2    1   72 1    
     3    1   73 1    
     4    1   74 1    
     5    2    3 2    
     6    2    4 am   BACKBONE|DICT|INTERRES
     7    4    5 1    
     8    4   75 1    
     9    5    6 1    
    10    5   35 1    
    11    5   76 1    
    12    6    7 1    
    13    6   77 1    
    14    6   78 1    
    15    7    8 1    
    16    8    9 1    
    17    8   79 1    
    18    8   80 1    
    19    9   10 ar   
    20    9   14 ar   
    21   10   11 ar   
    22   10   81 1    
    23   11   12 ar   
    24   11   71 1    
    25   12   13 ar   
    26   12   82 1    
    27   13   14 ar   
    28   13   15 1    
    29   14   83 1    
    30   15   16 1    
    31   15   84 1    
    32   15   85 1    
    33   16   17 1    
    34   17   18 1    
    35   17   86 1    
    36   17   87 1    
    37   18   19 1    
    38   18   37 1    
    39   18   88 1    
    40   19   20 am   BACKBONE|DICT|INTERRES
    41   19   89 1    
    42   20   21 2    
    43   20   22 1    
    44   22   23 1    
    45   22   24 1    
    46   22   90 1    
    47   23   91 1    
    48   23   92 1    
    49   23   93 1    
    50   24   25 am   BACKBONE|DICT|INTERRES
    51   24   94 1    
    52   25   26 2    
    53   25   27 1    
    54   27   28 1    
    55   27   29 1    
    56   27   95 1    
    57   28   96 1    
    58   28   97 1    
    59   28   98 1    
    60   29   30 am   BACKBONE|DICT|INTERRES
    61   29   99 1    
    62   30   31 2    
    63   30   32 1    
    64   32   33 1    
    65   32   34 1    
    66   32  100 1    
    67   33  101 1    
    68   33  102 1    
    69   33  103 1    
    70   34   35 am   BACKBONE|DICT|INTERRES
    71   34  104 1    
    72   35   36 2    
    73   37   38 2    
    74   37   39 am   BACKBONE|DICT|INTERRES
    75   39   40 1    
    76   39  105 1    
    77   40   41 1    
    78   40   42 1    
    79   40  106 1    
    80   41  107 1    
    81   41  108 1    
    82   41  109 1    
    83   42   43 2    
    84   42   44 am   BACKBONE|DICT|INTERRES
    85   44   45 1    
    86   44  110 1    
    87   45   46 1    
    88   45   47 1    
    89   45  111 1    
    90   46  112 1    
    91   46  113 1    
    92   46  114 1    
    93   47   48 2    
    94   47   49 am   BACKBONE|DICT|INTERRES
    95   49   50 1    
    96   49  115 1    
    97   50   51 1    
    98   50   52 1    
    99   50  116 1    
   100   51  117 1    
   101   51  118 1    
   102   51  119 1    
   103   52   53 2    
   104   52   54 am   BACKBONE|DICT|INTERRES
   105   54   55 1    
   106   54  120 1    
   107   55   56 1    
   108   55   57 1    
   109   55  121 1    
   110   56  122 1    
   111   56  123 1    
   112   56  124 1    
   113   57   58 2    
   114   57   59 am   BACKBONE|DICT|INTERRES
   115   59   60 1    
   116   59  125 1    
   117   60   61 1    
   118   60   62 1    
   119   60  126 1    
   120   61  127 1    
   121   61  128 1    
   122   61  129 1    
   123   62   63 2    
   124   62   64 am   BACKBONE|DICT|INTERRES
   125   64   65 1    
   126   64  130 1    
   127   65   66 1    
   128   65   69 1    
   129   65  131 1    
   130   66   67 am   BACKBONE|DICT|INTERRES
   131   66   68 2    
   132   67  132 1    
   133   67  133 1    
   134   69   70 1    
   135   69  134 1    
   136   69  135 1    
   137   70   71 1    
   138   71  136 1    
   139   71  137 1    
@<TRIPOS>SUBSTRUCTURE
     1 UNK         1 GROUP             0       ****    0 ROOT    
