@<TRIPOS>MOLECULE
3R137
137   139    1
SMALL
USER_CHARGES


@<TRIPOS>ATOM
      1 CA         23.6657   -5.2302   -4.1887 C.3       0 UNK        -0.2020 
      2 C          24.2012   -4.6335   -2.8966 C.2       0 UNK         0.4855 
      3 O          23.5168   -3.8310   -2.2605 O.2       0 UNK        -0.5197 
      4 N          25.4265   -5.0079   -2.5085 N.am      1 UNK        -0.4892 
      5 CA         26.1552   -4.4928   -1.3438 C.3       1 UNK         0.0835 
      6 C6         27.4877   -5.2521   -1.0762 C.3       12 UNK        -0.0855 
      7 S7         28.3548   -5.8821   -2.5631 S.3       12 UNK        -0.2931 
      8 C8         30.0700   -5.3236   -2.3129 C.3       12 UNK         0.0378 
      9 C9         30.3600   -4.0458   -3.0839 C.ar      12 UNK        -0.0802 
     10 C10        30.5732   -4.1020   -4.4638 C.ar      12 UNK        -0.0944 
     11 C11        30.8446   -2.9441   -5.1977 C.ar      12 UNK        -0.0787 
     12 C12        30.9050   -1.7147   -4.5257 C.ar      12 UNK        -0.0862 
     13 C13        30.7062   -1.6453   -3.1435 C.ar      12 UNK        -0.0733 
     14 C14        30.4317   -2.8151   -2.4279 C.ar      12 UNK        -0.0832 
     15 C15        30.8025   -0.3143   -2.4114 C.3       12 UNK         0.0240 
     16 S16        29.1734    0.2317   -1.8164 S.3       12 UNK        -0.2522 
     17 C17        28.7542    1.6033   -2.9438 C.3       12 UNK        -0.0967 
     18 CA         28.5836    1.2251   -4.4387 C.3       5 UNK         0.0660 
     19 N          27.7745    0.0181   -4.6336 N.am      5 UNK        -0.4015 
     20 C          27.5665   -0.5990   -5.8058 C.2       4 UNK         0.4946 
     21 O          28.0850   -0.2484   -6.8676 O.2       4 UNK        -0.5353 
     22 CA         26.5220   -1.7276   -5.8167 C.3       4 UNK         0.0277 
     23 CB         27.1794   -3.1013   -5.6207 C.3       4 UNK        -0.1981 
     24 N          25.4683   -1.5252   -4.8157 N.am      4 UNK        -0.4209 
     25 C          24.5702   -0.5278   -4.8594 C.2       3 UNK         0.4942 
     26 O          24.5486    0.3211   -5.7499 O.2       3 UNK        -0.5208 
     27 CA         23.5622   -0.4191   -3.7049 C.3       3 UNK         0.0250 
     28 CB         22.2891   -1.2192   -4.0191 C.3       3 UNK        -0.1990 
     29 N          24.1323   -0.8514   -2.4269 N.am      3 UNK        -0.4232 
     30 C          25.0320   -0.1288   -1.7399 C.2       2 UNK         0.4993 
     31 O          25.3932    0.9986   -2.0769 O.2       2 UNK        -0.5286 
     32 CA         25.6593   -0.7656   -0.4849 C.3       2 UNK         0.0209 
     33 CB         24.9148   -0.3050    0.7786 C.3       2 UNK        -0.1931 
     34 N          25.7086   -2.2311   -0.5102 N.am      2 UNK        -0.4546 
     35 C          26.3392   -2.9649   -1.4385 C.2       1 UNK         0.5154 
     36 O          26.9725   -2.4791   -2.3749 O.2       1 UNK        -0.5181 
     37 C          28.0581    2.4523   -5.2212 C.2       5 UNK         0.5014 
     38 O          28.8285    3.3894   -5.4304 O.2       5 UNK        -0.5248 
     39 N          26.7787    2.4427   -5.6244 N.am      6 UNK        -0.4434 
     40 CA         26.1596    3.4691   -6.4611 C.3       6 UNK         0.0363 
     41 CB         24.8318    3.9124   -5.8244 C.3       6 UNK        -0.1936 
     42 C          25.9276    2.9527   -7.8890 C.2       6 UNK         0.5081 
     43 O          26.2154    3.6769   -8.8416 O.2       6 UNK        -0.5248 
     44 N          25.3931    1.7292   -8.0192 N.am      7 UNK        -0.4718 
     45 CA         24.9943    1.1293   -9.2951 C.3       7 UNK         0.0273 
     46 CB         24.0990   -0.0924   -9.0326 C.3       7 UNK        -0.1935 
     47 C          26.1747    0.7513  -10.2035 C.2       7 UNK         0.5018 
     48 O          26.0841    0.9633  -11.4137 O.2       7 UNK        -0.5186 
     49 N          27.2462    0.2015   -9.6174 N.am      8 UNK        -0.4240 
     50 CA         28.4849   -0.1356  -10.3207 C.3       8 UNK         0.0235 
     51 CB         28.9587   -1.5400   -9.9118 C.3       8 UNK        -0.2000 
     52 C          29.5507    0.9276  -10.0338 C.2       8 UNK         0.4941 
     53 O          30.1371    1.4598  -10.9776 O.2       8 UNK        -0.5273 
     54 N          29.7512    1.2408   -8.7445 N.am      9 UNK        -0.4262 
     55 CA         30.6039    2.2930   -8.1714 C.3       9 UNK         0.0264 
     56 CB         30.1026    3.6930   -8.5740 C.3       9 UNK        -0.1955 
     57 C          32.1149    2.1531   -8.4317 C.2       9 UNK         0.5031 
     58 O          32.8935    2.1949   -7.4776 O.2       9 UNK        -0.5390 
     59 N          32.5187    1.9750   -9.6951 N.am      10 UNK        -0.4204 
     60 CA         33.9033    1.7971  -10.1501 C.3       10 UNK         0.0237 
     61 CB         33.9958    2.2119  -11.6305 C.3       10 UNK        -0.1985 
     62 C          34.4078    0.3608   -9.9003 C.2       10 UNK         0.4970 
     63 O          34.8828   -0.3058  -10.8219 O.2       10 UNK        -0.4914 
     64 N          34.2478   -0.0975   -8.6585 N.am      11 UNK        -0.4285 
     65 CA         34.5071   -1.4637   -8.1976 C.3       11 UNK         0.1007 
     66 C          35.9920   -1.6787   -7.8054 C.2       11 UNK         0.5703 
     67 N          36.4700   -2.9148   -7.8551 N.am      11 UNK        -0.7361 
     68 O          36.7066   -0.7500   -7.4304 O.2       11 UNK        -0.4986 
     69 C69        33.5493   -1.8259   -7.0336 C.3       12 UNK        -0.0947 
     70 S70        31.8026   -1.6531   -7.5378 S.3       12 UNK        -0.2240 
     71 C71        31.0266   -3.0774   -6.7107 C.3       12 UNK         0.0194 
     72 H72        22.6825   -5.6686   -4.0204 H         1 UNK         0.0906 
     73 H73        23.5689   -4.4553   -4.9485 H         1 UNK         0.0906 
     74 H74        24.3208   -6.0087   -4.5793 H         1 UNK         0.0906 
     75 H75        25.9661   -5.6418   -3.0828 H         1 UNK         0.3140 
     76 H76        25.5123   -4.6823   -0.4812 H         1 UNK         0.1085 
     77 H77        27.2705   -6.1265   -0.4608 H         1 UNK         0.0836 
     78 H78        28.1665   -4.6473   -0.4718 H         1 UNK         0.0836 
     79 H79        30.7427   -6.1082   -2.6625 H         1 UNK         0.0731 
     80 H80        30.2843   -5.2010   -1.2503 H         1 UNK         0.0731 
     81 H81        30.5121   -5.0556   -4.9706 H         1 UNK         0.1312 
     82 H82        31.1036   -0.8043   -5.0712 H         1 UNK         0.1406 
     83 H83        30.2658   -2.7617   -1.3606 H         1 UNK         0.1631 
     84 H84        31.2533    0.4531   -3.0423 H         1 UNK         0.0717 
     85 H85        31.4664   -0.4288   -1.5535 H         1 UNK         0.0717 
     86 H86        27.8335    2.0483   -2.5608 H         1 UNK         0.0934 
     87 H87        29.5196    2.3746   -2.8367 H         1 UNK         0.0934 
     88 H88        29.5715    1.0046   -4.8455 H         1 UNK         0.0739 
     89 H89        27.3486   -0.3698   -3.8018 H         1 UNK         0.3093 
     90 H90        26.0472   -1.7248   -6.7989 H         1 UNK         0.0818 
     91 H91        26.4380   -3.8982   -5.5656 H         1 UNK         0.0819 
     92 H92        27.8384   -3.3328   -6.4566 H         1 UNK         0.0819 
     93 H93        27.7830   -3.1407   -4.7136 H         1 UNK         0.0819 
     94 H94        25.5048   -2.1197   -3.9973 H         1 UNK         0.3041 
     95 H95        23.2794    0.6322   -3.6139 H         1 UNK         0.0784 
     96 H96        21.8117   -0.8453   -4.9260 H         1 UNK         0.0793 
     97 H97        22.4994   -2.2763   -4.1782 H         1 UNK         0.0793 
     98 H98        21.5600   -1.1396   -3.2127 H         1 UNK         0.0793 
     99 H99        23.8910   -1.7842   -2.1060 H         1 UNK         0.3024 
    100 H100       26.6877   -0.4057   -0.4247 H         1 UNK         0.1171 
    101 H101       25.4069   -0.6631    1.6831 H         1 UNK         0.0786 
    102 H102       24.8857    0.7841    0.8385 H         1 UNK         0.0786 
    103 H103       23.8835   -0.6598    0.7919 H         1 UNK         0.0786 
    104 H104       25.1760   -2.7070    0.2040 H         1 UNK         0.2977 
    105 H105       26.2078    1.6323   -5.4172 H         1 UNK         0.3127 
    106 H106       26.8056    4.3470   -6.5299 H         1 UNK         0.0770 
    107 H107       24.1306    3.0831   -5.7222 H         1 UNK         0.0814 
    108 H108       24.3458    4.6784   -6.4302 H         1 UNK         0.0814 
    109 H109       24.9925    4.3366   -4.8333 H         1 UNK         0.0814 
    110 H110       25.1350    1.2112   -7.1806 H         1 UNK         0.2983 
    111 H111       24.3975    1.8696   -9.8329 H         1 UNK         0.0947 
    112 H112       23.7483   -0.5278   -9.9693 H         1 UNK         0.0806 
    113 H113       23.2174    0.1796   -8.4516 H         1 UNK         0.0806 
    114 H114       24.6285   -0.8738   -8.4883 H         1 UNK         0.0806 
    115 H115       27.2593    0.0964   -8.6073 H         1 UNK         0.3000 
    116 H116       28.3196   -0.1492  -11.4003 H         1 UNK         0.0850 
    117 H117       29.9137   -1.7828  -10.3796 H         1 UNK         0.0810 
    118 H118       28.2423   -2.3010  -10.2210 H         1 UNK         0.0810 
    119 H119       29.0913   -1.6308   -8.8348 H         1 UNK         0.0810 
    120 H120       29.2373    0.6929   -8.0570 H         1 UNK         0.3040 
    121 H121       30.4800    2.1991   -7.0928 H         1 UNK         0.0766 
    122 H122       29.0607    3.8350   -8.2868 H         1 UNK         0.0812 
    123 H123       30.1796    3.8641   -9.6481 H         1 UNK         0.0812 
    124 H124       30.6823    4.4715   -8.0765 H         1 UNK         0.0812 
    125 H125       31.7824    1.8754  -10.3939 H         1 UNK         0.3205 
    126 H126       34.5476    2.4664   -9.5760 H         1 UNK         0.0754 
    127 H127       35.0206    2.1360  -11.9966 H         1 UNK         0.0769 
    128 H128       33.6789    3.2453  -11.7725 H         1 UNK         0.0769 
    129 H129       33.3724    1.5803  -12.2649 H         1 UNK         0.0769 
    130 H130       33.8649    0.5407   -7.9691 H         1 UNK         0.2981 
    131 H131       34.2928   -2.1418   -9.0264 H         1 UNK         0.0541 
    132 H132       35.8927   -3.6861   -8.1523 H         1 UNK         0.3459 
    133 H133       37.4296   -3.0793   -7.5938 H         1 UNK         0.3459 
    134 H134       33.7264   -2.8493   -6.6986 H         1 UNK         0.0612 
    135 H135       33.7241   -1.1825   -6.1693 H         1 UNK         0.0612 
    136 H136       31.6074   -3.9724   -6.9387 H         1 UNK         0.0624 
    137 H137       30.0462   -3.2283   -7.1610 H         1 UNK         0.0624 
@<TRIPOS>BOND
     1    1    2 1    
     2    1   72 1    
     3    1   73 1    
     4    1   74 1    
     5    2    3 2    
     6    2    4 am   BACKBONE|DICT|INTERRES
     7    4    5 1    
     8    4   75 1    
     9    5    6 1    
    10    5   35 1    
    11    5   76 1    
    12    6    7 1    
    13    6   77 1    
    14    6   78 1    
    15    7    8 1    
    16    8    9 1    
    17    8   79 1    
    18    8   80 1    
    19    9   10 ar   
    20    9   14 ar   
    21   10   11 ar   
    22   10   81 1    
    23   11   12 ar   
    24   11   71 1    
    25   12   13 ar   
    26   12   82 1    
    27   13   14 ar   
    28   13   15 1    
    29   14   83 1    
    30   15   16 1    
    31   15   84 1    
    32   15   85 1    
    33   16   17 1    
    34   17   18 1    
    35   17   86 1    
    36   17   87 1    
    37   18   19 1    
    38   18   37 1    
    39   18   88 1    
    40   19   20 am   BACKBONE|DICT|INTERRES
    41   19   89 1    
    42   20   21 2    
    43   20   22 1    
    44   22   23 1    
    45   22   24 1    
    46   22   90 1    
    47   23   91 1    
    48   23   92 1    
    49   23   93 1    
    50   24   25 am   BACKBONE|DICT|INTERRES
    51   24   94 1    
    52   25   26 2    
    53   25   27 1    
    54   27   28 1    
    55   27   29 1    
    56   27   95 1    
    57   28   96 1    
    58   28   97 1    
    59   28   98 1    
    60   29   30 am   BACKBONE|DICT|INTERRES
    61   29   99 1    
    62   30   31 2    
    63   30   32 1    
    64   32   33 1    
    65   32   34 1    
    66   32  100 1    
    67   33  101 1    
    68   33  102 1    
    69   33  103 1    
    70   34   35 am   BACKBONE|DICT|INTERRES
    71   34  104 1    
    72   35   36 2    
    73   37   38 2    
    74   37   39 am   BACKBONE|DICT|INTERRES
    75   39   40 1    
    76   39  105 1    
    77   40   41 1    
    78   40   42 1    
    79   40  106 1    
    80   41  107 1    
    81   41  108 1    
    82   41  109 1    
    83   42   43 2    
    84   42   44 am   BACKBONE|DICT|INTERRES
    85   44   45 1    
    86   44  110 1    
    87   45   46 1    
    88   45   47 1    
    89   45  111 1    
    90   46  112 1    
    91   46  113 1    
    92   46  114 1    
    93   47   48 2    
    94   47   49 am   BACKBONE|DICT|INTERRES
    95   49   50 1    
    96   49  115 1    
    97   50   51 1    
    98   50   52 1    
    99   50  116 1    
   100   51  117 1    
   101   51  118 1    
   102   51  119 1    
   103   52   53 2    
   104   52   54 am   BACKBONE|DICT|INTERRES
   105   54   55 1    
   106   54  120 1    
   107   55   56 1    
   108   55   57 1    
   109   55  121 1    
   110   56  122 1    
   111   56  123 1    
   112   56  124 1    
   113   57   58 2    
   114   57   59 am   BACKBONE|DICT|INTERRES
   115   59   60 1    
   116   59  125 1    
   117   60   61 1    
   118   60   62 1    
   119   60  126 1    
   120   61  127 1    
   121   61  128 1    
   122   61  129 1    
   123   62   63 2    
   124   62   64 am   BACKBONE|DICT|INTERRES
   125   64   65 1    
   126   64  130 1    
   127   65   66 1    
   128   65   69 1    
   129   65  131 1    
   130   66   67 am   BACKBONE|DICT|INTERRES
   131   66   68 2    
   132   67  132 1    
   133   67  133 1    
   134   69   70 1    
   135   69  134 1    
   136   69  135 1    
   137   70   71 1    
   138   71  136 1    
   139   71  137 1    
@<TRIPOS>SUBSTRUCTURE
     1 UNK         1 GROUP             0       ****    0 ROOT    
