@<TRIPOS>MOLECULE
3R137
137   139    1
SMALL
USER_CHARGES


@<TRIPOS>ATOM
      1 CA         23.1938   -5.6880   -2.0863 C.3       0 UNK        -0.2020 
      2 C          24.1376   -5.2401   -0.9807 C.2       0 UNK         0.4855 
      3 O          23.6885   -4.9429    0.1258 O.2       0 UNK        -0.5197 
      4 N          25.4433   -5.1784   -1.2736 N.am      1 UNK        -0.4892 
      5 CA         26.4994   -4.7576   -0.3400 C.3       1 UNK         0.0835 
      6 C6         27.8862   -5.2576   -0.8193 C.3       12 UNK        -0.0855 
      7 S7         28.4517   -4.4898   -2.3834 S.3       12 UNK        -0.2931 
      8 C8         29.9661   -3.6568   -1.8059 C.3       12 UNK         0.0378 
      9 C9         30.4531   -2.5821   -2.7686 C.ar      12 UNK        -0.0802 
     10 C10        30.7428   -2.8920   -4.1002 C.ar      12 UNK        -0.0944 
     11 C11        31.2167   -1.9084   -4.9731 C.ar      12 UNK        -0.0787 
     12 C12        31.4200   -0.6072   -4.5022 C.ar      12 UNK        -0.0862 
     13 C13        31.1375   -0.2846   -3.1708 C.ar      12 UNK        -0.0733 
     14 C14        30.6505   -1.2756   -2.3126 C.ar      12 UNK        -0.0832 
     15 C15        31.3646    1.1276   -2.6413 C.3       12 UNK         0.0240 
     16 S16        30.3832    2.4029   -3.5011 S.3       12 UNK        -0.2522 
     17 C17        28.7045    1.6868   -3.5263 C.3       12 UNK        -0.0967 
     18 CA         28.2441    1.4180   -4.9858 C.3       5 UNK         0.0660 
     19 N          27.6125    0.1092   -5.1496 N.am      5 UNK        -0.4015 
     20 C          27.4730   -0.5206   -6.3253 C.2       4 UNK         0.4946 
     21 O          27.9325   -0.0970   -7.3869 O.2       4 UNK        -0.5353 
     22 CA         26.6498   -1.8224   -6.3290 C.3       4 UNK         0.0277 
     23 CB         27.5608   -3.0411   -6.1238 C.3       4 UNK        -0.1981 
     24 N          25.5860   -1.8352   -5.3203 N.am      4 UNK        -0.4209 
     25 C          24.5142   -1.0300   -5.3461 C.2       3 UNK         0.4942 
     26 O          24.2870   -0.2313   -6.2516 O.2       3 UNK        -0.5208 
     27 CA         23.5630   -1.0789   -4.1379 C.3       3 UNK         0.0250 
     28 CB         22.4857   -2.1547   -4.3497 C.3       3 UNK        -0.1990 
     29 N          24.2279   -1.3025   -2.8492 N.am      3 UNK        -0.4232 
     30 C          25.2228   -0.5596   -2.3356 C.2       2 UNK         0.4993 
     31 O          25.7296    0.4031   -2.9127 O.2       2 UNK        -0.5286 
     32 CA         25.7779   -1.0100   -0.9797 C.3       2 UNK         0.0209 
     33 CB         24.9077   -0.4709    0.1716 C.3       2 UNK        -0.1931 
     34 N          25.8589   -2.4705   -0.9530 N.am      2 UNK        -0.4546 
     35 C          26.4987   -3.2344   -0.0601 C.2       1 UNK         0.5154 
     36 O          27.0860   -2.7936    0.9289 O.2       1 UNK        -0.5181 
     37 C          27.3170    2.5325   -5.5029 C.2       5 UNK         0.5014 
     38 O          27.7810    3.4223   -6.2151 O.2       5 UNK        -0.5248 
     39 N          26.0174    2.4409   -5.1771 N.am      6 UNK        -0.4434 
     40 CA         24.9706    3.3486   -5.6628 C.3       6 UNK         0.0363 
     41 CB         23.6455    3.0436   -4.9471 C.3       6 UNK        -0.1936 
     42 C          24.7934    3.2983   -7.1926 C.2       6 UNK         0.5081 
     43 O          24.6023    4.3418   -7.8167 O.2       6 UNK        -0.5248 
     44 N          24.9065    2.0950   -7.7714 N.am      7 UNK        -0.4718 
     45 CA         24.9325    1.8455   -9.2163 C.3       7 UNK         0.0273 
     46 CB         24.6559    0.3536   -9.4661 C.3       7 UNK        -0.1935 
     47 C          26.2516    2.2624   -9.8979 C.2       7 UNK         0.5018 
     48 O          26.2978    2.2868  -11.1285 O.2       7 UNK        -0.5186 
     49 N          27.2859    2.5727   -9.1016 N.am      8 UNK        -0.4240 
     50 CA         28.6375    2.9783   -9.4954 C.3       8 UNK         0.0235 
     51 CB         28.6158    4.3548  -10.1944 C.3       8 UNK        -0.2000 
     52 C          29.3788    1.8960  -10.3015 C.2       8 UNK         0.4941 
     53 O          29.9694    2.1992  -11.3413 O.2       8 UNK        -0.5273 
     54 N          29.3440    0.6499   -9.8064 N.am      9 UNK        -0.4262 
     55 CA         30.1228   -0.4674  -10.3463 C.3       9 UNK         0.0264 
     56 CB         29.6323   -1.7798   -9.7169 C.3       9 UNK        -0.1955 
     57 C          31.6318   -0.2654  -10.1112 C.2       9 UNK         0.5031 
     58 O          32.0267    0.3208   -9.0990 O.2       9 UNK        -0.5390 
     59 N          32.4503   -0.7565  -11.0494 N.am      10 UNK        -0.4204 
     60 CA         33.8990   -0.5354  -11.1222 C.3       10 UNK         0.0237 
     61 CB         34.3551   -0.7445  -12.5792 C.3       10 UNK        -0.1985 
     62 C          34.7195   -1.3736  -10.1186 C.2       10 UNK         0.4970 
     63 O          35.6571   -2.0663  -10.5203 O.2       10 UNK        -0.4914 
     64 N          34.3678   -1.2906   -8.8321 N.am      11 UNK        -0.4285 
     65 CA         35.1499   -1.8439   -7.7171 C.3       11 UNK         0.1007 
     66 C          36.4306   -1.0103   -7.4399 C.2       11 UNK         0.5703 
     67 N          37.4848   -1.6425   -6.9424 N.am      11 UNK        -0.7361 
     68 O          36.4682    0.2035   -7.6368 O.2       11 UNK        -0.4986 
     69 C69        34.2967   -1.9898   -6.4323 C.3       12 UNK        -0.0947 
     70 S70        32.9926   -3.2465   -6.6312 S.3       12 UNK        -0.2240 
     71 C71        31.4834   -2.2561   -6.4287 C.3       12 UNK         0.0194 
     72 H72        22.4309   -4.9302   -2.2612 H         1 UNK         0.0906 
     73 H73        23.7175   -5.8639   -3.0248 H         1 UNK         0.0906 
     74 H74        22.6941   -6.6119   -1.7991 H         1 UNK         0.0906 
     75 H75        25.7667   -5.4507   -2.1922 H         1 UNK         0.3140 
     76 H76        26.2949   -5.2386    0.6195 H         1 UNK         0.1085 
     77 H77        27.8552   -6.3384   -0.9668 H         1 UNK         0.0836 
     78 H78        28.6279   -5.1016   -0.0338 H         1 UNK         0.0836 
     79 H79        30.7533   -4.3992   -1.6684 H         1 UNK         0.0731 
     80 H80        29.7776   -3.2189   -0.8243 H         1 UNK         0.0731 
     81 H81        30.5944   -3.9012   -4.4598 H         1 UNK         0.1312 
     82 H82        31.7873    0.1587   -5.1716 H         1 UNK         0.1406 
     83 H83        30.4355   -1.0309   -1.2811 H         1 UNK         0.1631 
     84 H84        32.4224    1.3756   -2.7373 H         1 UNK         0.0717 
     85 H85        31.1359    1.1820   -1.5758 H         1 UNK         0.0717 
     86 H86        28.6932    0.7685   -2.9391 H         1 UNK         0.0934 
     87 H87        28.0288    2.3586   -2.9923 H         1 UNK         0.0934 
     88 H88        29.1219    1.4115   -5.6368 H         1 UNK         0.0739 
     89 H89        27.1392   -0.2586   -4.3349 H         1 UNK         0.3093 
     90 H90        26.1809   -1.9110   -7.3111 H         1 UNK         0.0818 
     91 H91        28.0799   -3.0009   -5.1658 H         1 UNK         0.0819 
     92 H92        26.9960   -3.9726   -6.1610 H         1 UNK         0.0819 
     93 H93        28.3166   -3.0944   -6.9072 H         1 UNK         0.0819 
     94 H94        25.6947   -2.4742   -4.5476 H         1 UNK         0.3041 
     95 H95        23.0668   -0.1086   -4.0774 H         1 UNK         0.0784 
     96 H96        21.9577   -1.9969   -5.2915 H         1 UNK         0.0793 
     97 H97        22.9136   -3.1575   -4.3809 H         1 UNK         0.0793 
     98 H98        21.7383   -2.1318   -3.5563 H         1 UNK         0.0793 
     99 H99        23.8280   -2.0236   -2.2674 H         1 UNK         0.3024 
    100 H100       26.7882   -0.6059   -0.8828 H         1 UNK         0.1171 
    101 H101       24.8022    0.6130    0.1061 H         1 UNK         0.0786 
    102 H102       23.9052   -0.8998    0.1568 H         1 UNK         0.0786 
    103 H103       25.3492   -0.6901    1.1437 H         1 UNK         0.0786 
    104 H104       25.4731   -2.9515   -1.7514 H         1 UNK         0.2977 
    105 H105       25.7296    1.6939   -4.5533 H         1 UNK         0.3127 
    106 H106       25.2722    4.3647   -5.3996 H         1 UNK         0.0770 
    107 H107       23.2685    2.0525   -5.1986 H         1 UNK         0.0814 
    108 H108       22.8772    3.7633   -5.2325 H         1 UNK         0.0814 
    109 H109       23.7548    3.0977   -3.8638 H         1 UNK         0.0814 
    110 H110       24.9537    1.2740   -7.1716 H         1 UNK         0.2983 
    111 H111       24.1316    2.4268   -9.6781 H         1 UNK         0.0947 
    112 H112       24.6128    0.1351  -10.5340 H         1 UNK         0.0806 
    113 H113       23.7026    0.0480   -9.0344 H         1 UNK         0.0806 
    114 H114       25.4361   -0.2748   -9.0356 H         1 UNK         0.0806 
    115 H115       27.1342    2.5212   -8.1019 H         1 UNK         0.3000 
    116 H116       29.1997    3.0941   -8.5676 H         1 UNK         0.0850 
    117 H117       28.1050    4.3142  -11.1569 H         1 UNK         0.0810 
    118 H118       28.1149    5.1023   -9.5792 H         1 UNK         0.0810 
    119 H119       29.6288    4.7141  -10.3795 H         1 UNK         0.0810 
    120 H120       28.8424    0.4752   -8.9370 H         1 UNK         0.3040 
    121 H121       29.9428   -0.5134  -11.4225 H         1 UNK         0.0766 
    122 H122       30.2177   -2.6321  -10.0639 H         1 UNK         0.0812 
    123 H123       28.5902   -1.9737   -9.9718 H         1 UNK         0.0812 
    124 H124       29.7040   -1.7498   -8.6315 H         1 UNK         0.0812 
    125 H125       32.0432   -1.2684  -11.8191 H         1 UNK         0.3205 
    126 H126       34.0901    0.5102  -10.8721 H         1 UNK         0.0754 
    127 H127       35.4171   -0.5231  -12.6944 H         1 UNK         0.0769 
    128 H128       33.8169   -0.0871  -13.2622 H         1 UNK         0.0769 
    129 H129       34.1981   -1.7724  -12.9078 H         1 UNK         0.0769 
    130 H130       33.5880   -0.6847   -8.5946 H         1 UNK         0.2981 
    131 H131       35.4779   -2.8429   -8.0118 H         1 UNK         0.0541 
    132 H132       38.3215   -1.1171   -6.7424 H         1 UNK         0.3459 
    133 H133       37.4627   -2.6350   -6.7663 H         1 UNK         0.3459 
    134 H134       33.8626   -1.0302   -6.1476 H         1 UNK         0.0612 
    135 H135       34.9152   -2.3054   -5.5901 H         1 UNK         0.0612 
    136 H136       31.5442   -1.3566   -7.0419 H         1 UNK         0.0624 
    137 H137       30.6461   -2.8379   -6.8115 H         1 UNK         0.0624 
@<TRIPOS>BOND
     1    1    2 1    
     2    1   72 1    
     3    1   73 1    
     4    1   74 1    
     5    2    3 2    
     6    2    4 am   BACKBONE|DICT|INTERRES
     7    4    5 1    
     8    4   75 1    
     9    5    6 1    
    10    5   35 1    
    11    5   76 1    
    12    6    7 1    
    13    6   77 1    
    14    6   78 1    
    15    7    8 1    
    16    8    9 1    
    17    8   79 1    
    18    8   80 1    
    19    9   10 ar   
    20    9   14 ar   
    21   10   11 ar   
    22   10   81 1    
    23   11   12 ar   
    24   11   71 1    
    25   12   13 ar   
    26   12   82 1    
    27   13   14 ar   
    28   13   15 1    
    29   14   83 1    
    30   15   16 1    
    31   15   84 1    
    32   15   85 1    
    33   16   17 1    
    34   17   18 1    
    35   17   86 1    
    36   17   87 1    
    37   18   19 1    
    38   18   37 1    
    39   18   88 1    
    40   19   20 am   BACKBONE|DICT|INTERRES
    41   19   89 1    
    42   20   21 2    
    43   20   22 1    
    44   22   23 1    
    45   22   24 1    
    46   22   90 1    
    47   23   91 1    
    48   23   92 1    
    49   23   93 1    
    50   24   25 am   BACKBONE|DICT|INTERRES
    51   24   94 1    
    52   25   26 2    
    53   25   27 1    
    54   27   28 1    
    55   27   29 1    
    56   27   95 1    
    57   28   96 1    
    58   28   97 1    
    59   28   98 1    
    60   29   30 am   BACKBONE|DICT|INTERRES
    61   29   99 1    
    62   30   31 2    
    63   30   32 1    
    64   32   33 1    
    65   32   34 1    
    66   32  100 1    
    67   33  101 1    
    68   33  102 1    
    69   33  103 1    
    70   34   35 am   BACKBONE|DICT|INTERRES
    71   34  104 1    
    72   35   36 2    
    73   37   38 2    
    74   37   39 am   BACKBONE|DICT|INTERRES
    75   39   40 1    
    76   39  105 1    
    77   40   41 1    
    78   40   42 1    
    79   40  106 1    
    80   41  107 1    
    81   41  108 1    
    82   41  109 1    
    83   42   43 2    
    84   42   44 am   BACKBONE|DICT|INTERRES
    85   44   45 1    
    86   44  110 1    
    87   45   46 1    
    88   45   47 1    
    89   45  111 1    
    90   46  112 1    
    91   46  113 1    
    92   46  114 1    
    93   47   48 2    
    94   47   49 am   BACKBONE|DICT|INTERRES
    95   49   50 1    
    96   49  115 1    
    97   50   51 1    
    98   50   52 1    
    99   50  116 1    
   100   51  117 1    
   101   51  118 1    
   102   51  119 1    
   103   52   53 2    
   104   52   54 am   BACKBONE|DICT|INTERRES
   105   54   55 1    
   106   54  120 1    
   107   55   56 1    
   108   55   57 1    
   109   55  121 1    
   110   56  122 1    
   111   56  123 1    
   112   56  124 1    
   113   57   58 2    
   114   57   59 am   BACKBONE|DICT|INTERRES
   115   59   60 1    
   116   59  125 1    
   117   60   61 1    
   118   60   62 1    
   119   60  126 1    
   120   61  127 1    
   121   61  128 1    
   122   61  129 1    
   123   62   63 2    
   124   62   64 am   BACKBONE|DICT|INTERRES
   125   64   65 1    
   126   64  130 1    
   127   65   66 1    
   128   65   69 1    
   129   65  131 1    
   130   66   67 am   BACKBONE|DICT|INTERRES
   131   66   68 2    
   132   67  132 1    
   133   67  133 1    
   134   69   70 1    
   135   69  134 1    
   136   69  135 1    
   137   70   71 1    
   138   71  136 1    
   139   71  137 1    
@<TRIPOS>SUBSTRUCTURE
     1 UNK         1 GROUP             0       ****    0 ROOT    
