@<TRIPOS>MOLECULE
3R137
137   139    1
SMALL
USER_CHARGES


@<TRIPOS>ATOM
      1 CA         27.1659   -5.5375    2.0128 C.3       0 UNK        -0.2020 
      2 C          26.7379   -5.2394    0.5836 C.2       0 UNK         0.4855 
      3 O          25.6937   -5.7255    0.1493 O.2       0 UNK        -0.5197 
      4 N          27.5378   -4.4412   -0.1388 N.am      1 UNK        -0.4892 
      5 CA         27.3263   -4.0226   -1.5345 C.3       1 UNK         0.0835 
      6 C6         27.4037   -5.1961   -2.5551 C.3       12 UNK        -0.0855 
      7 S7         28.9507   -6.1795   -2.6099 S.3       12 UNK        -0.2931 
      8 C8         30.3160   -5.0557   -2.1411 C.3       12 UNK         0.0378 
      9 C9         30.4432   -3.8178   -3.0255 C.ar      12 UNK        -0.0802 
     10 C10        30.4848   -3.9219   -4.4213 C.ar      12 UNK        -0.0944 
     11 C11        30.5831   -2.7741   -5.2150 C.ar      12 UNK        -0.0787 
     12 C12        30.6345   -1.5184   -4.6032 C.ar      12 UNK        -0.0862 
     13 C13        30.6130   -1.3996   -3.2123 C.ar      12 UNK        -0.0733 
     14 C14        30.5355   -2.5544   -2.4309 C.ar      12 UNK        -0.0832 
     15 C15        30.6707   -0.0334   -2.5431 C.3       12 UNK         0.0240 
     16 S16        29.0212    0.4806   -1.9651 S.3       12 UNK        -0.2522 
     17 C17        28.6054    1.8597   -3.0910 C.3       12 UNK        -0.0967 
     18 CA         28.4105    1.4359   -4.5669 C.3       5 UNK         0.0660 
     19 N          27.4684    0.3228   -4.7123 N.am      5 UNK        -0.4015 
     20 C          27.3168   -0.3877   -5.8391 C.2       4 UNK         0.4946 
     21 O          27.9661   -0.1822   -6.8607 O.2       4 UNK        -0.5353 
     22 CA         26.2246   -1.4674   -5.8669 C.3       4 UNK         0.0277 
     23 CB         26.8434   -2.8313   -5.5384 C.3       4 UNK        -0.1981 
     24 N          25.0980   -1.1936   -4.9678 N.am      4 UNK        -0.4209 
     25 C          24.3265   -0.0947   -5.0246 C.2       3 UNK         0.4942 
     26 O          24.4763    0.7978   -5.8613 O.2       3 UNK        -0.5208 
     27 CA         23.2420    0.0791   -3.9470 C.3       3 UNK         0.0250 
     28 CB         21.8762   -0.3687   -4.4904 C.3       3 UNK        -0.1990 
     29 N          23.5178   -0.6206   -2.6884 N.am      3 UNK        -0.4232 
     30 C          24.5936   -0.4337   -1.9099 C.2       2 UNK         0.4993 
     31 O          25.4968    0.3616   -2.1742 O.2       2 UNK        -0.5286 
     32 CA         24.7095   -1.3060   -0.6444 C.3       2 UNK         0.0209 
     33 CB         23.4111   -2.0577   -0.2694 C.3       2 UNK        -0.1931 
     34 N          25.8307   -2.2496   -0.7344 N.am      2 UNK        -0.4546 
     35 C          26.0545   -3.1569   -1.6999 C.2       1 UNK         0.5154 
     36 O          25.3180   -3.3102   -2.6779 O.2       1 UNK        -0.5181 
     37 C          28.0593    2.6467   -5.4608 C.2       5 UNK         0.5014 
     38 O          28.9527    3.4410   -5.7586 O.2       5 UNK        -0.5248 
     39 N          26.7926    2.7594   -5.8874 N.am      6 UNK        -0.4434 
     40 CA         26.3314    3.7372   -6.8706 C.3       6 UNK         0.0363 
     41 CB         25.0168    4.3698   -6.3837 C.3       6 UNK        -0.1936 
     42 C          26.1377    3.0777   -8.2444 C.2       6 UNK         0.5081 
     43 O          26.5919    3.6282   -9.2473 O.2       6 UNK        -0.5248 
     44 N          25.4553    1.9233   -8.2741 N.am      7 UNK        -0.4718 
     45 CA         25.0454    1.2312   -9.4999 C.3       7 UNK         0.0273 
     46 CB         23.9758    0.1825   -9.1545 C.3       7 UNK        -0.1935 
     47 C          26.1981    0.5857  -10.2877 C.2       7 UNK         0.5018 
     48 O          26.0926    0.4743  -11.5098 O.2       7 UNK        -0.5186 
     49 N          27.2652    0.1735   -9.5944 N.am      8 UNK        -0.4240 
     50 CA         28.4539   -0.4545  -10.1643 C.3       8 UNK         0.0235 
     51 CB         28.4521   -1.9570   -9.8232 C.3       8 UNK        -0.2000 
     52 C          29.6976    0.2851   -9.6536 C.2       8 UNK         0.4941 
     53 O          30.6018   -0.3273   -9.0844 O.2       8 UNK        -0.5273 
     54 N          29.7343    1.6047   -9.8948 N.am      9 UNK        -0.4262 
     55 CA         30.7923    2.5378   -9.4777 C.3       9 UNK         0.0264 
     56 CB         30.4275    3.9523   -9.9555 C.3       9 UNK        -0.1955 
     57 C          32.2248    2.1682   -9.9204 C.2       9 UNK         0.5031 
     58 O          33.1824    2.6685   -9.3285 O.2       9 UNK        -0.5390 
     59 N          32.3540    1.2640  -10.9030 N.am      10 UNK        -0.4204 
     60 CA         33.5940    0.6001  -11.3177 C.3       10 UNK         0.0237 
     61 CB         33.2884   -0.3373  -12.4974 C.3       10 UNK        -0.1985 
     62 C          34.3148   -0.1708  -10.1906 C.2       10 UNK         0.4970 
     63 O          35.5230   -0.3829  -10.3038 O.2       10 UNK        -0.4914 
     64 N          33.5944   -0.5431   -9.1205 N.am      11 UNK        -0.4285 
     65 CA         34.1752   -1.0158   -7.8519 C.3       11 UNK         0.1007 
     66 C          35.0742    0.0307   -7.1233 C.2       11 UNK         0.5703 
     67 N          34.9751    1.3250   -7.4087 N.am      11 UNK        -0.7361 
     68 O          35.8849   -0.3456   -6.2800 O.2       11 UNK        -0.4986 
     69 C69        33.0832   -1.5285   -6.8783 C.3       12 UNK        -0.0947 
     70 S70        32.2819   -3.0762   -7.4130 S.3       12 UNK        -0.2240 
     71 C71        30.6005   -2.8766   -6.7348 C.3       12 UNK         0.0194 
     72 H72        27.2919   -6.6113    2.1493 H         1 UNK         0.0906 
     73 H73        28.1071   -5.0515    2.2692 H         1 UNK         0.0906 
     74 H74        26.4047   -5.1924    2.7120 H         1 UNK         0.0906 
     75 H75        28.3728   -4.0763    0.2979 H         1 UNK         0.3140 
     76 H76        28.1240   -3.3248   -1.7679 H         1 UNK         0.1085 
     77 H77        27.2547   -4.8250   -3.5679 H         1 UNK         0.0836 
     78 H78        26.5794   -5.8904   -2.3846 H         1 UNK         0.0836 
     79 H79        31.2516   -5.6131   -2.2001 H         1 UNK         0.0731 
     80 H80        30.2004   -4.7799   -1.0925 H         1 UNK         0.0731 
     81 H81        30.4302   -4.8952   -4.8895 H         1 UNK         0.1312 
     82 H82        30.6944   -0.6336   -5.2183 H         1 UNK         0.1406 
     83 H83        30.5225   -2.4607   -1.3533 H         1 UNK         0.1631 
     84 H84        31.0923    0.7137   -3.2170 H         1 UNK         0.0717 
     85 H85        31.3438   -0.0783   -1.6857 H         1 UNK         0.0717 
     86 H86        27.6939    2.3261   -2.7115 H         1 UNK         0.0934 
     87 H87        29.3877    2.6172   -3.0097 H         1 UNK         0.0934 
     88 H88        29.3738    1.0869   -4.9353 H         1 UNK         0.0739 
     89 H89        26.8900    0.1179   -3.9052 H         1 UNK         0.3093 
     90 H90        25.8278   -1.5101   -6.8822 H         1 UNK         0.0818 
     91 H91        27.3714   -2.8025   -4.5851 H         1 UNK         0.0819 
     92 H92        26.0900   -3.6177   -5.4929 H         1 UNK         0.0819 
     93 H93        27.5699   -3.1197   -6.2988 H         1 UNK         0.0819 
     94 H94        24.9324   -1.8683   -4.2280 H         1 UNK         0.3041 
     95 H95        23.1872    1.1458   -3.7198 H         1 UNK         0.0784 
     96 H96        21.6339    0.1551   -5.4165 H         1 UNK         0.0793 
     97 H97        21.8585   -1.4378   -4.7067 H         1 UNK         0.0793 
     98 H98        21.0761   -0.1545   -3.7815 H         1 UNK         0.0793 
     99 H99        22.8480   -1.3213   -2.4054 H         1 UNK         0.3024 
    100 H100       24.9405   -0.6177    0.1705 H         1 UNK         0.1171 
    101 H101       23.5258   -2.5756    0.6831 H         1 UNK         0.0786 
    102 H102       22.5723   -1.3694   -0.1558 H         1 UNK         0.0786 
    103 H103       23.1341   -2.8065   -1.0125 H         1 UNK         0.0786 
    104 H104       26.5103   -2.1870    0.0106 H         1 UNK         0.2977 
    105 H105       26.1243    2.0445   -5.6221 H         1 UNK         0.3127 
    106 H106       27.0647    4.5383   -6.9868 H         1 UNK         0.0770 
    107 H107       24.2342    3.6242   -6.2367 H         1 UNK         0.0814 
    108 H108       24.6436    5.0973   -7.1058 H         1 UNK         0.0814 
    109 H109       25.1586    4.8948   -5.4391 H         1 UNK         0.0814 
    110 H110       25.1001    1.5375   -7.4011 H         1 UNK         0.2983 
    111 H111       24.5868    1.9727  -10.1581 H         1 UNK         0.0947 
    112 H112       24.3645   -0.5879   -8.4891 H         1 UNK         0.0806 
    113 H113       23.6124   -0.3164  -10.0539 H         1 UNK         0.0806 
    114 H114       23.1142    0.6399   -8.6675 H         1 UNK         0.0806 
    115 H115       27.2971    0.3039   -8.5854 H         1 UNK         0.3000 
    116 H116       28.4609   -0.3554  -11.2517 H         1 UNK         0.0850 
    117 H117       27.6029   -2.4629  -10.2823 H         1 UNK         0.0810 
    118 H118       28.3957   -2.1245   -8.7480 H         1 UNK         0.0810 
    119 H119       29.3573   -2.4458  -10.1859 H         1 UNK         0.0810 
    120 H120       28.9354    2.0184  -10.3554 H         1 UNK         0.3040 
    121 H121       30.7951    2.5396   -8.3855 H         1 UNK         0.0766 
    122 H122       31.1738    4.6797   -9.6325 H         1 UNK         0.0812 
    123 H123       29.4688    4.2738   -9.5469 H         1 UNK         0.0812 
    124 H124       30.3666    4.0076  -11.0431 H         1 UNK         0.0812 
    125 H125       31.5026    0.9124  -11.3146 H         1 UNK         0.3205 
    126 H126       34.2781    1.3780  -11.6627 H         1 UNK         0.0754 
    127 H127       34.1965   -0.8257  -12.8541 H         1 UNK         0.0769 
    128 H128       32.8650    0.2087  -13.3408 H         1 UNK         0.0769 
    129 H129       32.5853   -1.1226  -12.2159 H         1 UNK         0.0769 
    130 H130       32.5906   -0.3850   -9.1164 H         1 UNK         0.2981 
    131 H131       34.8300   -1.8550   -8.0933 H         1 UNK         0.0541 
    132 H132       34.3183    1.6673   -8.1034 H         1 UNK         0.3459 
    133 H133       35.5707    1.9776   -6.9253 H         1 UNK         0.3459 
    134 H134       33.4941   -1.7193   -5.8847 H         1 UNK         0.0612 
    135 H135       32.3270   -0.7528   -6.7562 H         1 UNK         0.0612 
    136 H136       30.1403   -1.9887   -7.1669 H         1 UNK         0.0624 
    137 H137       29.9900   -3.7212   -7.0566 H         1 UNK         0.0624 
@<TRIPOS>BOND
     1    1    2 1    
     2    1   72 1    
     3    1   73 1    
     4    1   74 1    
     5    2    3 2    
     6    2    4 am   BACKBONE|DICT|INTERRES
     7    4    5 1    
     8    4   75 1    
     9    5    6 1    
    10    5   35 1    
    11    5   76 1    
    12    6    7 1    
    13    6   77 1    
    14    6   78 1    
    15    7    8 1    
    16    8    9 1    
    17    8   79 1    
    18    8   80 1    
    19    9   10 ar   
    20    9   14 ar   
    21   10   11 ar   
    22   10   81 1    
    23   11   12 ar   
    24   11   71 1    
    25   12   13 ar   
    26   12   82 1    
    27   13   14 ar   
    28   13   15 1    
    29   14   83 1    
    30   15   16 1    
    31   15   84 1    
    32   15   85 1    
    33   16   17 1    
    34   17   18 1    
    35   17   86 1    
    36   17   87 1    
    37   18   19 1    
    38   18   37 1    
    39   18   88 1    
    40   19   20 am   BACKBONE|DICT|INTERRES
    41   19   89 1    
    42   20   21 2    
    43   20   22 1    
    44   22   23 1    
    45   22   24 1    
    46   22   90 1    
    47   23   91 1    
    48   23   92 1    
    49   23   93 1    
    50   24   25 am   BACKBONE|DICT|INTERRES
    51   24   94 1    
    52   25   26 2    
    53   25   27 1    
    54   27   28 1    
    55   27   29 1    
    56   27   95 1    
    57   28   96 1    
    58   28   97 1    
    59   28   98 1    
    60   29   30 am   BACKBONE|DICT|INTERRES
    61   29   99 1    
    62   30   31 2    
    63   30   32 1    
    64   32   33 1    
    65   32   34 1    
    66   32  100 1    
    67   33  101 1    
    68   33  102 1    
    69   33  103 1    
    70   34   35 am   BACKBONE|DICT|INTERRES
    71   34  104 1    
    72   35   36 2    
    73   37   38 2    
    74   37   39 am   BACKBONE|DICT|INTERRES
    75   39   40 1    
    76   39  105 1    
    77   40   41 1    
    78   40   42 1    
    79   40  106 1    
    80   41  107 1    
    81   41  108 1    
    82   41  109 1    
    83   42   43 2    
    84   42   44 am   BACKBONE|DICT|INTERRES
    85   44   45 1    
    86   44  110 1    
    87   45   46 1    
    88   45   47 1    
    89   45  111 1    
    90   46  112 1    
    91   46  113 1    
    92   46  114 1    
    93   47   48 2    
    94   47   49 am   BACKBONE|DICT|INTERRES
    95   49   50 1    
    96   49  115 1    
    97   50   51 1    
    98   50   52 1    
    99   50  116 1    
   100   51  117 1    
   101   51  118 1    
   102   51  119 1    
   103   52   53 2    
   104   52   54 am   BACKBONE|DICT|INTERRES
   105   54   55 1    
   106   54  120 1    
   107   55   56 1    
   108   55   57 1    
   109   55  121 1    
   110   56  122 1    
   111   56  123 1    
   112   56  124 1    
   113   57   58 2    
   114   57   59 am   BACKBONE|DICT|INTERRES
   115   59   60 1    
   116   59  125 1    
   117   60   61 1    
   118   60   62 1    
   119   60  126 1    
   120   61  127 1    
   121   61  128 1    
   122   61  129 1    
   123   62   63 2    
   124   62   64 am   BACKBONE|DICT|INTERRES
   125   64   65 1    
   126   64  130 1    
   127   65   66 1    
   128   65   69 1    
   129   65  131 1    
   130   66   67 am   BACKBONE|DICT|INTERRES
   131   66   68 2    
   132   67  132 1    
   133   67  133 1    
   134   69   70 1    
   135   69  134 1    
   136   69  135 1    
   137   70   71 1    
   138   71  136 1    
   139   71  137 1    
@<TRIPOS>SUBSTRUCTURE
     1 UNK         1 GROUP             0       ****    0 ROOT    
