@<TRIPOS>MOLECULE
3R137
137   139    1
SMALL
USER_CHARGES


@<TRIPOS>ATOM
      1 CA         26.1360   -5.4995   -3.6241 C.3       0 UNK        -0.2020 
      2 C          25.9632   -4.4710   -2.5173 C.2       0 UNK         0.4855 
      3 O          24.8441   -4.2643   -2.0479 O.2       0 UNK        -0.5197 
      4 N          27.0604   -3.8356   -2.0867 N.am      1 UNK        -0.4892 
      5 CA         27.0690   -2.8198   -1.0278 C.3       1 UNK         0.0835 
      6 C6         28.4894   -2.5508   -0.4723 C.3       12 UNK        -0.0855 
      7 S7         29.3238   -4.0841    0.0689 S.3       12 UNK        -0.2931 
      8 C8         31.0409   -3.8196   -0.4893 C.3       12 UNK         0.0378 
      9 C9         31.1563   -3.4981   -1.9759 C.ar      12 UNK        -0.0802 
     10 C10        31.8193   -2.3359   -2.3840 C.ar      12 UNK        -0.0944 
     11 C11        31.9566   -2.0389   -3.7416 C.ar      12 UNK        -0.0787 
     12 C12        31.4143   -2.9041   -4.6925 C.ar      12 UNK        -0.0862 
     13 C13        30.7316   -4.0613   -4.3035 C.ar      12 UNK        -0.0733 
     14 C14        30.6206   -4.3595   -2.9407 C.ar      12 UNK        -0.0832 
     15 C15        30.1485   -5.0177   -5.3412 C.3       12 UNK         0.0240 
     16 S16        29.4133   -4.1896   -6.7938 S.3       12 UNK        -0.2522 
     17 C17        28.0065   -3.2975   -6.0572 C.3       12 UNK        -0.0967 
     18 CA         27.4783   -2.1713   -6.9863 C.3       5 UNK         0.0660 
     19 N          26.0134   -2.0841   -6.9442 N.am      5 UNK        -0.4015 
     20 C          25.2668   -1.3900   -7.8140 C.2       4 UNK         0.4946 
     21 O          25.7326   -0.7180   -8.7319 O.2       4 UNK        -0.5353 
     22 CA         23.7401   -1.4303   -7.6232 C.3       4 UNK         0.0277 
     23 CB         23.1490   -2.6629   -8.3263 C.3       4 UNK        -0.1981 
     24 N          23.2810   -1.3966   -6.2296 N.am      4 UNK        -0.4209 
     25 C          23.6276   -0.4883   -5.3067 C.2       3 UNK         0.4942 
     26 O          24.4691    0.3923   -5.4991 O.2       3 UNK        -0.5208 
     27 CA         22.9404   -0.5761   -3.9356 C.3       3 UNK         0.0250 
     28 CB         22.2692   -1.9350   -3.6401 C.3       3 UNK        -0.1990 
     29 N          23.9494   -0.2928   -2.9265 N.am      3 UNK        -0.4232 
     30 C          23.7743    0.2893   -1.7404 C.2       2 UNK         0.4993 
     31 O          22.6780    0.6494   -1.3069 O.2       2 UNK        -0.5286 
     32 CA         25.0544    0.4777   -0.8979 C.3       2 UNK         0.0209 
     33 CB         24.7819    1.1815    0.4451 C.3       2 UNK        -0.1931 
     34 N          25.7497   -0.7893   -0.6363 N.am      2 UNK        -0.4546 
     35 C          26.4390   -1.5092   -1.5331 C.2       1 UNK         0.5154 
     36 O          26.5947   -1.1697   -2.7114 O.2       1 UNK        -0.5181 
     37 C          28.1551   -0.8089   -6.7115 C.2       5 UNK         0.5014 
     38 O          29.0863   -0.4263   -7.4273 O.2       5 UNK        -0.5248 
     39 N          27.6415   -0.0819   -5.7075 N.am      6 UNK        -0.4434 
     40 CA         28.0545    1.2832   -5.3833 C.3       6 UNK         0.0363 
     41 CB         27.5853    1.6533   -3.9681 C.3       6 UNK        -0.1936 
     42 C          27.5378    2.3053   -6.4066 C.2       6 UNK         0.5081 
     43 O          28.2857    3.2110   -6.7705 O.2       6 UNK        -0.5248 
     44 N          26.2912    2.1393   -6.8739 N.am      7 UNK        -0.4718 
     45 CA         25.6567    3.0039   -7.8770 C.3       7 UNK         0.0273 
     46 CB         24.1700    2.6431   -8.0118 C.3       7 UNK        -0.1935 
     47 C          26.3554    2.9560   -9.2469 C.2       7 UNK         0.5018 
     48 O          26.5145    3.9997   -9.8807 O.2       7 UNK        -0.5186 
     49 N          26.7977    1.7591   -9.6579 N.am      8 UNK        -0.4240 
     50 CA         27.6358    1.5385  -10.8402 C.3       8 UNK         0.0235 
     51 CB         27.5846    0.0491  -11.2203 C.3       8 UNK        -0.2000 
     52 C          29.0982    1.9818  -10.6446 C.2       8 UNK         0.4941 
     53 O          29.8266    2.0654  -11.6343 O.2       8 UNK        -0.5273 
     54 N          29.5011    2.2372   -9.3893 N.am      9 UNK        -0.4262 
     55 CA         30.8436    2.6028   -8.9300 C.3       9 UNK         0.0264 
     56 CB         31.2301    4.0111   -9.4290 C.3       9 UNK        -0.1955 
     57 C          31.8874    1.5279   -9.2773 C.2       9 UNK         0.5031 
     58 O          32.9582    1.8514   -9.7959 O.2       9 UNK        -0.5390 
     59 N          31.5605    0.2603   -8.9814 N.am      10 UNK        -0.4204 
     60 CA         32.3794   -0.9115   -9.3186 C.3       10 UNK         0.0237 
     61 CB         31.5930   -2.1865   -8.9849 C.3       10 UNK        -0.1985 
     62 C          33.7748   -0.9373   -8.6626 C.2       10 UNK         0.4970 
     63 O          34.6761   -1.5810   -9.2015 O.2       10 UNK        -0.4914 
     64 N          33.9352   -0.2252   -7.5402 N.am      11 UNK        -0.4285 
     65 CA         35.2258    0.0245   -6.8791 C.3       11 UNK         0.1007 
     66 C          36.0774    1.1458   -7.5468 C.2       11 UNK         0.5703 
     67 N          35.5869    1.8705   -8.5464 N.am      11 UNK        -0.7361 
     68 O          37.2234    1.3554   -7.1558 O.2       11 UNK        -0.4986 
     69 C69        35.0450    0.2784   -5.3585 C.3       12 UNK        -0.0947 
     70 S70        34.4583   -1.2111   -4.4897 S.3       12 UNK        -0.2240 
     71 C71        32.7134   -0.8019   -4.1930 C.3       12 UNK         0.0194 
     72 H72        25.7916   -6.4753   -3.2823 H         1 UNK         0.0906 
     73 H73        27.1763   -5.5994   -3.9300 H         1 UNK         0.0906 
     74 H74        25.5448   -5.2186   -4.4950 H         1 UNK         0.0906 
     75 H75        27.9581   -4.0245   -2.5061 H         1 UNK         0.3140 
     76 H76        26.4532   -3.1984   -0.2084 H         1 UNK         0.1085 
     77 H77        28.4414   -1.8769    0.3853 H         1 UNK         0.0836 
     78 H78        29.0945   -2.0366   -1.2206 H         1 UNK         0.0836 
     79 H79        31.4792   -3.0230    0.1140 H         1 UNK         0.0731 
     80 H80        31.6220   -4.7180   -0.2773 H         1 UNK         0.0731 
     81 H81        32.2462   -1.6689   -1.6473 H         1 UNK         0.1312 
     82 H82        31.5381   -2.6769   -5.7405 H         1 UNK         0.1406 
     83 H83        30.1209   -5.2654   -2.6242 H         1 UNK         0.1631 
     84 H84        29.3943   -5.6634   -4.8904 H         1 UNK         0.0717 
     85 H85        30.9473   -5.6745   -5.6877 H         1 UNK         0.0717 
     86 H86        27.2333   -4.0484   -5.8957 H         1 UNK         0.0934 
     87 H87        28.2661   -2.9195   -5.0657 H         1 UNK         0.0934 
     88 H88        27.7237   -2.4329   -8.0186 H         1 UNK         0.0739 
     89 H89        25.5425   -2.5933   -6.2122 H         1 UNK         0.3093 
     90 H90        23.3319   -0.5441   -8.1107 H         1 UNK         0.0818 
     91 H91        23.4601   -2.7028   -9.3714 H         1 UNK         0.0819 
     92 H92        23.4709   -3.5925   -7.8552 H         1 UNK         0.0819 
     93 H93        22.0591   -2.6415   -8.3179 H         1 UNK         0.0819 
     94 H94        22.5906   -2.0867   -5.9708 H         1 UNK         0.3041 
     95 H95        22.1815    0.2085   -3.9114 H         1 UNK         0.0784 
     96 H96        21.4489   -2.1371   -4.3297 H         1 UNK         0.0793 
     97 H97        22.9795   -2.7608   -3.7045 H         1 UNK         0.0793 
     98 H98        21.8439   -1.9501   -2.6363 H         1 UNK         0.0793 
     99 H99        24.9023   -0.5468   -3.1786 H         1 UNK         0.3024 
    100 H100       25.7211    1.1205   -1.4771 H         1 UNK         0.1171 
    101 H101       24.1233    0.5921    1.0842 H         1 UNK         0.0786 
    102 H102       25.7067    1.3646    0.9926 H         1 UNK         0.0786 
    103 H103       24.3045    2.1500    0.2893 H         1 UNK         0.0786 
    104 H104       25.6539   -1.1549    0.3004 H         1 UNK         0.2977 
    105 H105       26.8698   -0.4567   -5.1724 H         1 UNK         0.3127 
    106 H106       29.1461    1.3226   -5.3970 H         1 UNK         0.0770 
    107 H107       27.8583    2.6801   -3.7213 H         1 UNK         0.0814 
    108 H108       26.5026    1.5691   -3.8677 H         1 UNK         0.0814 
    109 H109       28.0465    1.0096   -3.2193 H         1 UNK         0.0814 
    110 H110       25.7169    1.3968   -6.4794 H         1 UNK         0.2983 
    111 H111       25.7240    4.0309   -7.5114 H         1 UNK         0.0947 
    112 H112       24.0370    1.6358   -8.4041 H         1 UNK         0.0806 
    113 H113       23.6637    3.3273   -8.6940 H         1 UNK         0.0806 
    114 H114       23.6566    2.7013   -7.0518 H         1 UNK         0.0806 
    115 H115       26.5480    0.9310   -9.1199 H         1 UNK         0.3000 
    116 H116       27.2248    2.1198  -11.6683 H         1 UNK         0.0850 
    117 H117       28.1666   -0.1475  -12.1216 H         1 UNK         0.0810 
    118 H118       26.5626   -0.2751  -11.4175 H         1 UNK         0.0810 
    119 H119       27.9881   -0.5810  -10.4261 H         1 UNK         0.0810 
    120 H120       28.8099    2.1591   -8.6538 H         1 UNK         0.3040 
    121 H121       30.7960    2.6413   -7.8407 H         1 UNK         0.0766 
    122 H122       31.3364    4.0427  -10.5138 H         1 UNK         0.0812 
    123 H123       32.1811    4.3296   -9.0003 H         1 UNK         0.0812 
    124 H124       30.4818    4.7502   -9.1429 H         1 UNK         0.0812 
    125 H125       30.6653    0.0767   -8.5321 H         1 UNK         0.3205 
    126 H126       32.5412   -0.8900  -10.3983 H         1 UNK         0.0754 
    127 H127       32.1699   -3.0827   -9.2176 H         1 UNK         0.0769 
    128 H128       30.6639   -2.2411   -9.5529 H         1 UNK         0.0769 
    129 H129       31.3366   -2.2249   -7.9281 H         1 UNK         0.0769 
    130 H130       33.1436    0.2832   -7.1792 H         1 UNK         0.2981 
    131 H131       35.8291   -0.8796   -6.9823 H         1 UNK         0.0541 
    132 H132       34.6496    1.7214   -8.9091 H         1 UNK         0.3459 
    133 H133       36.1676    2.5825   -8.9591 H         1 UNK         0.3459 
    134 H134       34.3665    1.1141   -5.1787 H         1 UNK         0.0612 
    135 H135       35.9945    0.5542   -4.8958 H         1 UNK         0.0612 
    136 H136       32.6457   -0.0132   -3.4421 H         1 UNK         0.0624 
    137 H137       32.2641   -0.4062   -5.1051 H         1 UNK         0.0624 
@<TRIPOS>BOND
     1    1    2 1    
     2    1   72 1    
     3    1   73 1    
     4    1   74 1    
     5    2    3 2    
     6    2    4 am   BACKBONE|DICT|INTERRES
     7    4    5 1    
     8    4   75 1    
     9    5    6 1    
    10    5   35 1    
    11    5   76 1    
    12    6    7 1    
    13    6   77 1    
    14    6   78 1    
    15    7    8 1    
    16    8    9 1    
    17    8   79 1    
    18    8   80 1    
    19    9   10 ar   
    20    9   14 ar   
    21   10   11 ar   
    22   10   81 1    
    23   11   12 ar   
    24   11   71 1    
    25   12   13 ar   
    26   12   82 1    
    27   13   14 ar   
    28   13   15 1    
    29   14   83 1    
    30   15   16 1    
    31   15   84 1    
    32   15   85 1    
    33   16   17 1    
    34   17   18 1    
    35   17   86 1    
    36   17   87 1    
    37   18   19 1    
    38   18   37 1    
    39   18   88 1    
    40   19   20 am   BACKBONE|DICT|INTERRES
    41   19   89 1    
    42   20   21 2    
    43   20   22 1    
    44   22   23 1    
    45   22   24 1    
    46   22   90 1    
    47   23   91 1    
    48   23   92 1    
    49   23   93 1    
    50   24   25 am   BACKBONE|DICT|INTERRES
    51   24   94 1    
    52   25   26 2    
    53   25   27 1    
    54   27   28 1    
    55   27   29 1    
    56   27   95 1    
    57   28   96 1    
    58   28   97 1    
    59   28   98 1    
    60   29   30 am   BACKBONE|DICT|INTERRES
    61   29   99 1    
    62   30   31 2    
    63   30   32 1    
    64   32   33 1    
    65   32   34 1    
    66   32  100 1    
    67   33  101 1    
    68   33  102 1    
    69   33  103 1    
    70   34   35 am   BACKBONE|DICT|INTERRES
    71   34  104 1    
    72   35   36 2    
    73   37   38 2    
    74   37   39 am   BACKBONE|DICT|INTERRES
    75   39   40 1    
    76   39  105 1    
    77   40   41 1    
    78   40   42 1    
    79   40  106 1    
    80   41  107 1    
    81   41  108 1    
    82   41  109 1    
    83   42   43 2    
    84   42   44 am   BACKBONE|DICT|INTERRES
    85   44   45 1    
    86   44  110 1    
    87   45   46 1    
    88   45   47 1    
    89   45  111 1    
    90   46  112 1    
    91   46  113 1    
    92   46  114 1    
    93   47   48 2    
    94   47   49 am   BACKBONE|DICT|INTERRES
    95   49   50 1    
    96   49  115 1    
    97   50   51 1    
    98   50   52 1    
    99   50  116 1    
   100   51  117 1    
   101   51  118 1    
   102   51  119 1    
   103   52   53 2    
   104   52   54 am   BACKBONE|DICT|INTERRES
   105   54   55 1    
   106   54  120 1    
   107   55   56 1    
   108   55   57 1    
   109   55  121 1    
   110   56  122 1    
   111   56  123 1    
   112   56  124 1    
   113   57   58 2    
   114   57   59 am   BACKBONE|DICT|INTERRES
   115   59   60 1    
   116   59  125 1    
   117   60   61 1    
   118   60   62 1    
   119   60  126 1    
   120   61  127 1    
   121   61  128 1    
   122   61  129 1    
   123   62   63 2    
   124   62   64 am   BACKBONE|DICT|INTERRES
   125   64   65 1    
   126   64  130 1    
   127   65   66 1    
   128   65   69 1    
   129   65  131 1    
   130   66   67 am   BACKBONE|DICT|INTERRES
   131   66   68 2    
   132   67  132 1    
   133   67  133 1    
   134   69   70 1    
   135   69  134 1    
   136   69  135 1    
   137   70   71 1    
   138   71  136 1    
   139   71  137 1    
@<TRIPOS>SUBSTRUCTURE
     1 UNK         1 GROUP             0       ****    0 ROOT    
