@<TRIPOS>MOLECULE
3R137
137   139    1
SMALL
USER_CHARGES


@<TRIPOS>ATOM
      1 CA         29.4988   -6.8541   -8.0709 C.3       0 UNK        -0.2020 
      2 C          28.6703   -6.6606   -6.8095 C.2       0 UNK         0.4855 
      3 O          28.0133   -7.6001   -6.3592 O.2       0 UNK        -0.5197 
      4 N          28.7048   -5.4538   -6.2312 N.am      1 UNK        -0.4892 
      5 CA         27.9353   -5.0691   -5.0414 C.3       1 UNK         0.0835 
      6 C6         28.4727   -3.7607   -4.4048 C.3       12 UNK        -0.0855 
      7 S7         30.2275   -3.9325   -3.9282 S.3       12 UNK        -0.2931 
      8 C8         30.2713   -3.2826   -2.2241 C.3       12 UNK         0.0378 
      9 C9         30.5823   -1.7899   -2.1576 C.ar      12 UNK        -0.0802 
     10 C10        31.6799   -1.2627   -2.8486 C.ar      12 UNK        -0.0944 
     11 C11        32.0129    0.0898   -2.7348 C.ar      12 UNK        -0.0787 
     12 C12        31.2416    0.9221   -1.9215 C.ar      12 UNK        -0.0862 
     13 C13        30.1463    0.4101   -1.2198 C.ar      12 UNK        -0.0733 
     14 C14        29.8186   -0.9450   -1.3440 C.ar      12 UNK        -0.0832 
     15 C15        29.3410    1.3186   -0.3009 C.3       12 UNK         0.0240 
     16 S16        27.6919    1.6987   -0.9683 S.3       12 UNK        -0.2522 
     17 C17        28.0924    2.5153   -2.5522 C.3       12 UNK        -0.0967 
     18 CA         27.8039    1.5809   -3.7612 C.3       5 UNK         0.0660 
     19 N          26.4011    1.1487   -3.8118 N.am      5 UNK        -0.4015 
     20 C          25.3225    1.9079   -4.0413 C.2       4 UNK         0.4946 
     21 O          25.3722    3.0608   -4.4760 O.2       4 UNK        -0.5353 
     22 CA         23.9572    1.2788   -3.6974 C.3       4 UNK         0.0277 
     23 CB         22.8498    2.3418   -3.5667 C.3       4 UNK        -0.1981 
     24 N          23.5110    0.2565   -4.6458 N.am      4 UNK        -0.4209 
     25 C          24.0689   -0.9455   -4.8311 C.2       3 UNK         0.4942 
     26 O          25.1078   -1.3154   -4.2759 O.2       3 UNK        -0.5208 
     27 CA         23.3170   -1.8874   -5.7878 C.3       3 UNK         0.0250 
     28 CB         23.4904   -1.4713   -7.2588 C.3       3 UNK        -0.1990 
     29 N          23.7628   -3.2695   -5.6194 N.am      3 UNK        -0.4232 
     30 C          23.3881   -4.0781   -4.6224 C.2       2 UNK         0.4993 
     31 O          22.5177   -3.7908   -3.7989 O.2       2 UNK        -0.5286 
     32 CA         24.1025   -5.4371   -4.5136 C.3       2 UNK         0.0209 
     33 CB         23.6369   -6.4052   -5.6204 C.3       2 UNK        -0.1931 
     34 N          25.5719   -5.3593   -4.4450 N.am      2 UNK        -0.4546 
     35 C          26.4359   -4.9554   -5.3887 C.2       1 UNK         0.5154 
     36 O          26.0973   -4.5089   -6.4888 O.2       1 UNK        -0.5181 
     37 C          28.2585    2.1650   -5.1124 C.2       5 UNK         0.5014 
     38 O          28.5963    1.3993   -6.0156 O.2       5 UNK        -0.5248 
     39 N          28.2021    3.4959   -5.2635 N.am      6 UNK        -0.4434 
     40 CA         28.4558    4.2116   -6.5176 C.3       6 UNK         0.0363 
     41 CB         28.4262    5.7248   -6.2516 C.3       6 UNK        -0.1936 
     42 C          27.4777    3.8436   -7.6509 C.2       6 UNK         0.5081 
     43 O          27.8420    3.9778   -8.8183 O.2       6 UNK        -0.5248 
     44 N          26.2748    3.3608   -7.3012 N.am      7 UNK        -0.4718 
     45 CA         25.3080    2.8019   -8.2508 C.3       7 UNK         0.0273 
     46 CB         23.9270    2.7081   -7.5851 C.3       7 UNK        -0.1935 
     47 C          25.7361    1.4305   -8.8082 C.2       7 UNK         0.5018 
     48 O          25.3480    1.0979   -9.9284 O.2       7 UNK        -0.5186 
     49 N          26.5263    0.6676   -8.0369 N.am      8 UNK        -0.4240 
     50 CA         27.1694   -0.5679   -8.4915 C.3       8 UNK         0.0235 
     51 CB         27.4570   -1.4895   -7.2927 C.3       8 UNK        -0.2000 
     52 C          28.4748   -0.2524   -9.2349 C.2       8 UNK         0.4941 
     53 O          28.7387   -0.8498  -10.2780 O.2       8 UNK        -0.5273 
     54 N          29.2640    0.6724   -8.6646 N.am      9 UNK        -0.4262 
     55 CA         30.5672    1.1621   -9.1307 C.3       9 UNK         0.0264 
     56 CB         30.4464    1.8546  -10.5043 C.3       9 UNK        -0.1955 
     57 C          31.6839    0.0998   -9.1009 C.2       9 UNK         0.5031 
     58 O          32.7292    0.2964   -9.7244 O.2       9 UNK        -0.5390 
     59 N          31.4840   -0.9848   -8.3394 N.am      10 UNK        -0.4204 
     60 CA         32.4365   -2.0792   -8.1265 C.3       10 UNK         0.0237 
     61 CB         31.6485   -3.3413   -7.7276 C.3       10 UNK        -0.1985 
     62 C          33.5154   -1.6963   -7.0926 C.2       10 UNK         0.4970 
     63 O          33.7241   -2.4202   -6.1174 O.2       10 UNK        -0.4914 
     64 N          34.1492   -0.5407   -7.3143 N.am      11 UNK        -0.4285 
     65 CA         35.0647    0.1345   -6.3830 C.3       11 UNK         0.1007 
     66 C          36.4871    0.3560   -6.9709 C.2       11 UNK         0.5703 
     67 N          36.8000   -0.1386   -8.1633 N.am      11 UNK        -0.7361 
     68 O          37.3332    0.9716   -6.3264 O.2       11 UNK        -0.4986 
     69 C69        34.4493    1.4575   -5.8405 C.3       12 UNK        -0.0947 
     70 S70        32.7848    1.2474   -5.1175 S.3       12 UNK        -0.2240 
     71 C71        33.2268    0.6407   -3.4639 C.3       12 UNK         0.0194 
     72 H72        30.0272   -5.9455   -8.3572 H         1 UNK         0.0906 
     73 H73        30.2369   -7.6411   -7.9179 H         1 UNK         0.0906 
     74 H74        28.8553   -7.1467   -8.9003 H         1 UNK         0.0906 
     75 H75        29.2598   -4.7186   -6.6417 H         1 UNK         0.3140 
     76 H76        28.0483   -5.8716   -4.3085 H         1 UNK         0.1085 
     77 H77        28.3866   -2.9239   -5.0972 H         1 UNK         0.0836 
     78 H78        27.8792   -3.4888   -3.5300 H         1 UNK         0.0836 
     79 H79        29.3375   -3.5183   -1.7116 H         1 UNK         0.0731 
     80 H80        31.0543   -3.8121   -1.6797 H         1 UNK         0.0731 
     81 H81        32.2857   -1.9098   -3.4695 H         1 UNK         0.1312 
     82 H82        31.5049    1.9668   -1.8258 H         1 UNK         0.1406 
     83 H83        28.9779   -1.3410   -0.7903 H         1 UNK         0.1631 
     84 H84        29.8727    2.2526   -0.1124 H         1 UNK         0.0717 
     85 H85        29.2243    0.8354    0.6702 H         1 UNK         0.0717 
     86 H86        27.4965    3.4278   -2.6069 H         1 UNK         0.0934 
     87 H87        29.1361    2.8341   -2.5455 H         1 UNK         0.0934 
     88 H88        28.3928    0.6723   -3.6226 H         1 UNK         0.0739 
     89 H89        26.2317    0.1698   -3.6002 H         1 UNK         0.3093 
     90 H90        24.0662    0.8015   -2.7208 H         1 UNK         0.0818 
     91 H91        21.9164    1.9040   -3.2123 H         1 UNK         0.0819 
     92 H92        23.1335    3.1146   -2.8508 H         1 UNK         0.0819 
     93 H93        22.6497    2.8384   -4.5171 H         1 UNK         0.0819 
     94 H94        22.6667    0.4714   -5.1562 H         1 UNK         0.3041 
     95 H95        22.2540   -1.8335   -5.5422 H         1 UNK         0.0784 
     96 H96        23.2003   -0.4326   -7.4196 H         1 UNK         0.0793 
     97 H97        24.5183   -1.5787   -7.5982 H         1 UNK         0.0793 
     98 H98        22.8665   -2.0814   -7.9122 H         1 UNK         0.0793 
     99 H99        24.5502   -3.5782   -6.1860 H         1 UNK         0.3024 
    100 H100       23.7887   -5.8684   -3.5610 H         1 UNK         0.1171 
    101 H101       22.5526   -6.5232   -5.6023 H         1 UNK         0.0786 
    102 H102       24.0724   -7.3957   -5.4881 H         1 UNK         0.0786 
    103 H103       23.9063   -6.0530   -6.6165 H         1 UNK         0.0786 
    104 H104       25.9609   -5.6693   -3.5647 H         1 UNK         0.2977 
    105 H105       27.8377    4.0465   -4.4996 H         1 UNK         0.3127 
    106 H106       29.4586    3.9408   -6.8549 H         1 UNK         0.0770 
    107 H107       27.4504    6.0517   -5.8898 H         1 UNK         0.0814 
    108 H108       28.6399    6.2848   -7.1632 H         1 UNK         0.0814 
    109 H109       29.1745    6.0139   -5.5135 H         1 UNK         0.0814 
    110 H110       26.0321    3.3163   -6.3142 H         1 UNK         0.2983 
    111 H111       25.2291    3.4877   -9.0975 H         1 UNK         0.0947 
    112 H112       23.1757    2.3563   -8.2935 H         1 UNK         0.0806 
    113 H113       23.5961    3.6787   -7.2153 H         1 UNK         0.0806 
    114 H114       23.9332    2.0146   -6.7465 H         1 UNK         0.0806 
    115 H115       26.8454    1.0410   -7.1519 H         1 UNK         0.3000 
    116 H116       26.4994   -1.0943   -9.1750 H         1 UNK         0.0850 
    117 H117       27.8145   -2.4620   -7.6337 H         1 UNK         0.0810 
    118 H118       28.2186   -1.0796   -6.6301 H         1 UNK         0.0810 
    119 H119       26.5690   -1.6690   -6.6895 H         1 UNK         0.0810 
    120 H120       28.9691    1.0409   -7.7608 H         1 UNK         0.3040 
    121 H121       30.8671    1.9227   -8.4080 H         1 UNK         0.0766 
    122 H122       29.6609    2.6104  -10.4986 H         1 UNK         0.0812 
    123 H123       30.2226    1.1430  -11.2994 H         1 UNK         0.0812 
    124 H124       31.3760    2.3578  -10.7726 H         1 UNK         0.0812 
    125 H125       30.6210   -1.0333   -7.8194 H         1 UNK         0.3205 
    126 H126       32.9495   -2.2880   -9.0677 H         1 UNK         0.0754 
    127 H127       32.3125   -4.1992   -7.6130 H         1 UNK         0.0769 
    128 H128       30.9114   -3.6013   -8.4873 H         1 UNK         0.0769 
    129 H129       31.1250   -3.2042   -6.7807 H         1 UNK         0.0769 
    130 H130       33.9103   -0.0279   -8.1573 H         1 UNK         0.2981 
    131 H131       35.2361   -0.5168   -5.5252 H         1 UNK         0.0541 
    132 H132       37.7280    0.0063   -8.5290 H         1 UNK         0.3459 
    133 H133       36.1250   -0.6659   -8.6936 H         1 UNK         0.3459 
    134 H134       34.3674    2.1896   -6.6458 H         1 UNK         0.0612 
    135 H135       35.0986    1.9070   -5.0869 H         1 UNK         0.0612 
    136 H136       33.6806    1.4510   -2.8913 H         1 UNK         0.0624 
    137 H137       33.9844   -0.1393   -3.5492 H         1 UNK         0.0624 
@<TRIPOS>BOND
     1    1    2 1    
     2    1   72 1    
     3    1   73 1    
     4    1   74 1    
     5    2    3 2    
     6    2    4 am   BACKBONE|DICT|INTERRES
     7    4    5 1    
     8    4   75 1    
     9    5    6 1    
    10    5   35 1    
    11    5   76 1    
    12    6    7 1    
    13    6   77 1    
    14    6   78 1    
    15    7    8 1    
    16    8    9 1    
    17    8   79 1    
    18    8   80 1    
    19    9   10 ar   
    20    9   14 ar   
    21   10   11 ar   
    22   10   81 1    
    23   11   12 ar   
    24   11   71 1    
    25   12   13 ar   
    26   12   82 1    
    27   13   14 ar   
    28   13   15 1    
    29   14   83 1    
    30   15   16 1    
    31   15   84 1    
    32   15   85 1    
    33   16   17 1    
    34   17   18 1    
    35   17   86 1    
    36   17   87 1    
    37   18   19 1    
    38   18   37 1    
    39   18   88 1    
    40   19   20 am   BACKBONE|DICT|INTERRES
    41   19   89 1    
    42   20   21 2    
    43   20   22 1    
    44   22   23 1    
    45   22   24 1    
    46   22   90 1    
    47   23   91 1    
    48   23   92 1    
    49   23   93 1    
    50   24   25 am   BACKBONE|DICT|INTERRES
    51   24   94 1    
    52   25   26 2    
    53   25   27 1    
    54   27   28 1    
    55   27   29 1    
    56   27   95 1    
    57   28   96 1    
    58   28   97 1    
    59   28   98 1    
    60   29   30 am   BACKBONE|DICT|INTERRES
    61   29   99 1    
    62   30   31 2    
    63   30   32 1    
    64   32   33 1    
    65   32   34 1    
    66   32  100 1    
    67   33  101 1    
    68   33  102 1    
    69   33  103 1    
    70   34   35 am   BACKBONE|DICT|INTERRES
    71   34  104 1    
    72   35   36 2    
    73   37   38 2    
    74   37   39 am   BACKBONE|DICT|INTERRES
    75   39   40 1    
    76   39  105 1    
    77   40   41 1    
    78   40   42 1    
    79   40  106 1    
    80   41  107 1    
    81   41  108 1    
    82   41  109 1    
    83   42   43 2    
    84   42   44 am   BACKBONE|DICT|INTERRES
    85   44   45 1    
    86   44  110 1    
    87   45   46 1    
    88   45   47 1    
    89   45  111 1    
    90   46  112 1    
    91   46  113 1    
    92   46  114 1    
    93   47   48 2    
    94   47   49 am   BACKBONE|DICT|INTERRES
    95   49   50 1    
    96   49  115 1    
    97   50   51 1    
    98   50   52 1    
    99   50  116 1    
   100   51  117 1    
   101   51  118 1    
   102   51  119 1    
   103   52   53 2    
   104   52   54 am   BACKBONE|DICT|INTERRES
   105   54   55 1    
   106   54  120 1    
   107   55   56 1    
   108   55   57 1    
   109   55  121 1    
   110   56  122 1    
   111   56  123 1    
   112   56  124 1    
   113   57   58 2    
   114   57   59 am   BACKBONE|DICT|INTERRES
   115   59   60 1    
   116   59  125 1    
   117   60   61 1    
   118   60   62 1    
   119   60  126 1    
   120   61  127 1    
   121   61  128 1    
   122   61  129 1    
   123   62   63 2    
   124   62   64 am   BACKBONE|DICT|INTERRES
   125   64   65 1    
   126   64  130 1    
   127   65   66 1    
   128   65   69 1    
   129   65  131 1    
   130   66   67 am   BACKBONE|DICT|INTERRES
   131   66   68 2    
   132   67  132 1    
   133   67  133 1    
   134   69   70 1    
   135   69  134 1    
   136   69  135 1    
   137   70   71 1    
   138   71  136 1    
   139   71  137 1    
@<TRIPOS>SUBSTRUCTURE
     1 UNK         1 GROUP             0       ****    0 ROOT    
