@<TRIPOS>MOLECULE
3R137
137   139    1
SMALL
USER_CHARGES


@<TRIPOS>ATOM
      1 CA         25.5943   -7.2369    0.8272 C.3       0 UNK        -0.2020 
      2 C          26.0802   -5.9990    0.0885 C.2       0 UNK         0.4855 
      3 O          25.9340   -5.9235   -1.1320 O.2       0 UNK        -0.5197 
      4 N          26.6428   -5.0283    0.8234 N.am      1 UNK        -0.4892 
      5 CA         27.2128   -3.7465    0.3674 C.3       1 UNK         0.0835 
      6 C6         28.3412   -3.8842   -0.6883 C.3       12 UNK        -0.0855 
      7 S7         29.7082   -4.9636   -0.1323 S.3       12 UNK        -0.2931 
      8 C8         31.1721   -3.9148   -0.4498 C.3       12 UNK         0.0378 
      9 C9         31.4173   -3.5275   -1.9119 C.ar      12 UNK        -0.0802 
     10 C10        32.3484   -2.5177   -2.1816 C.ar      12 UNK        -0.0944 
     11 C11        32.6039   -2.1116   -3.4945 C.ar      12 UNK        -0.0787 
     12 C12        31.9232   -2.7249   -4.5485 C.ar      12 UNK        -0.0862 
     13 C13        30.9658   -3.7092   -4.2975 C.ar      12 UNK        -0.0733 
     14 C14        30.7416   -4.1291   -2.9844 C.ar      12 UNK        -0.0832 
     15 C15        30.1330   -4.2782   -5.4386 C.3       12 UNK         0.0240 
     16 S16        28.4205   -3.6434   -5.3987 S.3       12 UNK        -0.2522 
     17 C17        28.6748   -1.8383   -5.5115 C.3       12 UNK        -0.0967 
     18 CA         27.8532   -1.1878   -6.6468 C.3       5 UNK         0.0660 
     19 N          26.4101   -1.2530   -6.3929 N.am      5 UNK        -0.4015 
     20 C          25.4678   -0.9303   -7.2917 C.2       4 UNK         0.4946 
     21 O          25.7146   -0.5779   -8.4440 O.2       4 UNK        -0.5353 
     22 CA         24.0041   -0.9459   -6.8158 C.3       4 UNK         0.0277 
     23 CB         23.4096   -2.3565   -6.9518 C.3       4 UNK        -0.1981 
     24 N          23.8294   -0.4724   -5.4402 N.am      4 UNK        -0.4209 
     25 C          24.2334    0.7165   -4.9685 C.2       3 UNK         0.4942 
     26 O          24.7478    1.5851   -5.6718 O.2       3 UNK        -0.5208 
     27 CA         24.0795    0.9801   -3.4591 C.3       3 UNK         0.0250 
     28 CB         22.9551    1.9977   -3.2079 C.3       3 UNK        -0.1990 
     29 N          23.8374   -0.2175   -2.6448 N.am      3 UNK        -0.4232 
     30 C          24.6835   -1.2474   -2.4992 C.2       2 UNK         0.4993 
     31 O          25.7675   -1.3363   -3.0833 O.2       2 UNK        -0.5286 
     32 CA         24.1808   -2.3987   -1.6119 C.3       2 UNK         0.0209 
     33 CB         23.2873   -3.3478   -2.4287 C.3       2 UNK        -0.1931 
     34 N          25.2691   -3.1771   -1.0229 N.am      2 UNK        -0.4546 
     35 C          26.1370   -2.7438   -0.1017 C.2       1 UNK         0.5154 
     36 O          26.0953   -1.6187    0.3995 O.2       1 UNK        -0.5181 
     37 C          28.3357    0.2575   -6.8847 C.2       5 UNK         0.5014 
     38 O          29.1826    0.4747   -7.7531 O.2       5 UNK        -0.5248 
     39 N          27.7891    1.2178   -6.1253 N.am      6 UNK        -0.4434 
     40 CA         28.0853    2.6434   -6.2694 C.3       6 UNK         0.0363 
     41 CB         27.6341    3.4053   -5.0128 C.3       6 UNK        -0.1936 
     42 C          27.4422    3.2301   -7.5344 C.2       6 UNK         0.5081 
     43 O          28.0972    3.9951   -8.2405 O.2       6 UNK        -0.5248 
     44 N          26.1958    2.8285   -7.8237 N.am      7 UNK        -0.4718 
     45 CA         25.4520    3.2020   -9.0310 C.3       7 UNK         0.0273 
     46 CB         24.0038    2.7009   -8.9189 C.3       7 UNK        -0.1935 
     47 C          26.1099    2.6880  -10.3237 C.2       7 UNK         0.5018 
     48 O          26.1727    3.4282  -11.3058 O.2       7 UNK        -0.5186 
     49 N          26.6198    1.4486  -10.2892 N.am      8 UNK        -0.4240 
     50 CA         27.4048    0.8383  -11.3662 C.3       8 UNK         0.0235 
     51 CB         27.4411   -0.6848  -11.1557 C.3       8 UNK        -0.2000 
     52 C          28.8407    1.3865  -11.4726 C.2       8 UNK         0.4941 
     53 O          29.4897    1.1429  -12.4906 O.2       8 UNK        -0.5273 
     54 N          29.3149    2.0820  -10.4263 N.am      9 UNK        -0.4262 
     55 CA         30.6793    2.5832  -10.2248 C.3       9 UNK         0.0264 
     56 CB         31.0132    3.7027  -11.2334 C.3       9 UNK        -0.1955 
     57 C          31.7149    1.4419  -10.2118 C.2       9 UNK         0.5031 
     58 O          32.7462    1.5286  -10.8817 O.2       9 UNK        -0.5390 
     59 N          31.4008    0.3761   -9.4624 N.am      10 UNK        -0.4204 
     60 CA         32.2126   -0.8376   -9.3548 C.3       10 UNK         0.0237 
     61 CB         31.3555   -1.9647   -8.7543 C.3       10 UNK        -0.1985 
     62 C          33.4964   -0.6416   -8.5312 C.2       10 UNK         0.4970 
     63 O          34.4830   -1.3328   -8.7880 O.2       10 UNK        -0.4914 
     64 N          33.4572    0.2691   -7.5508 N.am      11 UNK        -0.4285 
     65 CA         34.5837    0.5861   -6.6629 C.3       11 UNK         0.1007 
     66 C          35.6838    1.4130   -7.3800 C.2       11 UNK         0.5703 
     67 N          36.9493    1.1707   -7.0652 N.am      11 UNK        -0.7361 
     68 O          35.3990    2.3001   -8.1826 O.2       11 UNK        -0.4986 
     69 C69        34.1224    1.2932   -5.3586 C.3       12 UNK        -0.0947 
     70 S70        32.7479    0.4446   -4.5110 S.3       12 UNK        -0.2240 
     71 C71        33.5955   -0.9975   -3.7896 C.3       12 UNK         0.0194 
     72 H72        26.1038   -8.1223    0.4479 H         1 UNK         0.0906 
     73 H73        24.5235   -7.3684    0.6746 H         1 UNK         0.0906 
     74 H74        25.7792   -7.1732    1.8993 H         1 UNK         0.0906 
     75 H75        26.6992   -5.1664    1.8233 H         1 UNK         0.3140 
     76 H76        27.6643   -3.3025    1.2566 H         1 UNK         0.1085 
     77 H77        28.7426   -2.8983   -0.9321 H         1 UNK         0.0836 
     78 H78        27.9501   -4.2823   -1.6262 H         1 UNK         0.0836 
     79 H79        31.0806   -3.0101    0.1537 H         1 UNK         0.0731 
     80 H80        32.0536   -4.4416   -0.0821 H         1 UNK         0.0731 
     81 H81        32.8711   -2.0399   -1.3638 H         1 UNK         0.1312 
     82 H82        32.1096   -2.3975   -5.5622 H         1 UNK         0.1406 
     83 H83        30.0086   -4.9038   -2.8121 H         1 UNK         0.1631 
     84 H84        30.1114   -5.3665   -5.3672 H         1 UNK         0.0717 
     85 H85        30.5813   -4.0420   -6.4050 H         1 UNK         0.0717 
     86 H86        28.4255   -1.3953   -4.5449 H         1 UNK         0.0934 
     87 H87        29.7346   -1.6370   -5.6654 H         1 UNK         0.0934 
     88 H88        28.0498   -1.7396   -7.5689 H         1 UNK         0.0739 
     89 H89        26.1288   -1.5232   -5.4589 H         1 UNK         0.3093 
     90 H90        23.4404   -0.2734   -7.4647 H         1 UNK         0.0818 
     91 H91        23.5123   -2.7251   -7.9736 H         1 UNK         0.0819 
     92 H92        23.9078   -3.0718   -6.2959 H         1 UNK         0.0819 
     93 H93        22.3460   -2.3647   -6.7130 H         1 UNK         0.0819 
     94 H94        23.4110   -1.1183   -4.7880 H         1 UNK         0.3041 
     95 H95        25.0195    1.4206   -3.1200 H         1 UNK         0.0784 
     96 H96        23.1241    2.9150   -3.7744 H         1 UNK         0.0793 
     97 H97        21.9816    1.6062   -3.5059 H         1 UNK         0.0793 
     98 H98        22.8988    2.2773   -2.1556 H         1 UNK         0.0793 
     99 H99        22.9584   -0.2422   -2.1471 H         1 UNK         0.3024 
    100 H100       23.5956   -1.9749   -0.7925 H         1 UNK         0.1171 
    101 H101       23.8337   -3.7998   -3.2580 H         1 UNK         0.0786 
    102 H102       22.8963   -4.1549   -1.8086 H         1 UNK         0.0786 
    103 H103       22.4290   -2.8221   -2.8492 H         1 UNK         0.0786 
    104 H104       25.3928   -4.1313   -1.3528 H         1 UNK         0.2977 
    105 H105       27.0556    0.9702   -5.4764 H         1 UNK         0.3127 
    106 H106       29.1678    2.7590   -6.3614 H         1 UNK         0.0770 
    107 H107       27.8907    4.4627   -5.0893 H         1 UNK         0.0814 
    108 H108       26.5563    3.3446   -4.8611 H         1 UNK         0.0814 
    109 H109       28.1218    3.0184   -4.1181 H         1 UNK         0.0814 
    110 H110       25.7107    2.2403   -7.1491 H         1 UNK         0.2983 
    111 H111       25.4336    4.2929   -9.0816 H         1 UNK         0.0947 
    112 H112       23.9566    1.6127   -8.8802 H         1 UNK         0.0806 
    113 H113       23.4126    3.0226   -9.7772 H         1 UNK         0.0806 
    114 H114       23.5168    3.0890   -8.0240 H         1 UNK         0.0806 
    115 H115       26.4457    0.8692   -9.4707 H         1 UNK         0.3000 
    116 H116       26.9049    1.0427  -12.3155 H         1 UNK         0.0850 
    117 H117       27.9872   -1.1805  -11.9594 H         1 UNK         0.0810 
    118 H118       26.4363   -1.1072  -11.1386 H         1 UNK         0.0810 
    119 H119       27.9307   -0.9480  -10.2168 H         1 UNK         0.0810 
    120 H120       28.6895    2.2251   -9.6437 H         1 UNK         0.3040 
    121 H121       30.6972    3.0235   -9.2266 H         1 UNK         0.0766 
    122 H122       31.9824    4.1506  -11.0108 H         1 UNK         0.0812 
    123 H123       30.2712    4.5004  -11.1975 H         1 UNK         0.0812 
    124 H124       31.0560    3.3290  -12.2569 H         1 UNK         0.0812 
    125 H125       30.5369    0.4011   -8.9184 H         1 UNK         0.3205 
    126 H126       32.5102   -1.1358  -10.3624 H         1 UNK         0.0754 
    127 H127       31.9203   -2.8958   -8.6911 H         1 UNK         0.0769 
    128 H128       30.4735   -2.1607   -9.3646 H         1 UNK         0.0769 
    129 H129       31.0168   -1.7184   -7.7481 H         1 UNK         0.0769 
    130 H130       32.6143    0.8049   -7.4130 H         1 UNK         0.2981 
    131 H131       35.0367   -0.3650   -6.3791 H         1 UNK         0.0541 
    132 H132       37.6755    1.7108   -7.5094 H         1 UNK         0.3459 
    133 H133       37.1952    0.4554   -6.3986 H         1 UNK         0.3459 
    134 H134       33.7904    2.3101   -5.5765 H         1 UNK         0.0612 
    135 H135       34.9550    1.3878   -4.6591 H         1 UNK         0.0612 
    136 H136       34.1238   -0.6869   -2.8870 H         1 UNK         0.0624 
    137 H137       34.3496   -1.3808   -4.4763 H         1 UNK         0.0624 
@<TRIPOS>BOND
     1    1    2 1    
     2    1   72 1    
     3    1   73 1    
     4    1   74 1    
     5    2    3 2    
     6    2    4 am   BACKBONE|DICT|INTERRES
     7    4    5 1    
     8    4   75 1    
     9    5    6 1    
    10    5   35 1    
    11    5   76 1    
    12    6    7 1    
    13    6   77 1    
    14    6   78 1    
    15    7    8 1    
    16    8    9 1    
    17    8   79 1    
    18    8   80 1    
    19    9   10 ar   
    20    9   14 ar   
    21   10   11 ar   
    22   10   81 1    
    23   11   12 ar   
    24   11   71 1    
    25   12   13 ar   
    26   12   82 1    
    27   13   14 ar   
    28   13   15 1    
    29   14   83 1    
    30   15   16 1    
    31   15   84 1    
    32   15   85 1    
    33   16   17 1    
    34   17   18 1    
    35   17   86 1    
    36   17   87 1    
    37   18   19 1    
    38   18   37 1    
    39   18   88 1    
    40   19   20 am   BACKBONE|DICT|INTERRES
    41   19   89 1    
    42   20   21 2    
    43   20   22 1    
    44   22   23 1    
    45   22   24 1    
    46   22   90 1    
    47   23   91 1    
    48   23   92 1    
    49   23   93 1    
    50   24   25 am   BACKBONE|DICT|INTERRES
    51   24   94 1    
    52   25   26 2    
    53   25   27 1    
    54   27   28 1    
    55   27   29 1    
    56   27   95 1    
    57   28   96 1    
    58   28   97 1    
    59   28   98 1    
    60   29   30 am   BACKBONE|DICT|INTERRES
    61   29   99 1    
    62   30   31 2    
    63   30   32 1    
    64   32   33 1    
    65   32   34 1    
    66   32  100 1    
    67   33  101 1    
    68   33  102 1    
    69   33  103 1    
    70   34   35 am   BACKBONE|DICT|INTERRES
    71   34  104 1    
    72   35   36 2    
    73   37   38 2    
    74   37   39 am   BACKBONE|DICT|INTERRES
    75   39   40 1    
    76   39  105 1    
    77   40   41 1    
    78   40   42 1    
    79   40  106 1    
    80   41  107 1    
    81   41  108 1    
    82   41  109 1    
    83   42   43 2    
    84   42   44 am   BACKBONE|DICT|INTERRES
    85   44   45 1    
    86   44  110 1    
    87   45   46 1    
    88   45   47 1    
    89   45  111 1    
    90   46  112 1    
    91   46  113 1    
    92   46  114 1    
    93   47   48 2    
    94   47   49 am   BACKBONE|DICT|INTERRES
    95   49   50 1    
    96   49  115 1    
    97   50   51 1    
    98   50   52 1    
    99   50  116 1    
   100   51  117 1    
   101   51  118 1    
   102   51  119 1    
   103   52   53 2    
   104   52   54 am   BACKBONE|DICT|INTERRES
   105   54   55 1    
   106   54  120 1    
   107   55   56 1    
   108   55   57 1    
   109   55  121 1    
   110   56  122 1    
   111   56  123 1    
   112   56  124 1    
   113   57   58 2    
   114   57   59 am   BACKBONE|DICT|INTERRES
   115   59   60 1    
   116   59  125 1    
   117   60   61 1    
   118   60   62 1    
   119   60  126 1    
   120   61  127 1    
   121   61  128 1    
   122   61  129 1    
   123   62   63 2    
   124   62   64 am   BACKBONE|DICT|INTERRES
   125   64   65 1    
   126   64  130 1    
   127   65   66 1    
   128   65   69 1    
   129   65  131 1    
   130   66   67 am   BACKBONE|DICT|INTERRES
   131   66   68 2    
   132   67  132 1    
   133   67  133 1    
   134   69   70 1    
   135   69  134 1    
   136   69  135 1    
   137   70   71 1    
   138   71  136 1    
   139   71  137 1    
@<TRIPOS>SUBSTRUCTURE
     1 UNK         1 GROUP             0       ****    0 ROOT    
