@<TRIPOS>MOLECULE
3R137
137   139    1
SMALL
USER_CHARGES


@<TRIPOS>ATOM
      1 CA         24.5170   -6.8607   -5.6368 C.3       0 UNK        -0.2020 
      2 C          24.6743   -6.2715   -4.2429 C.2       0 UNK         0.4855 
      3 O          23.8462   -6.5340   -3.3696 O.2       0 UNK        -0.5197 
      4 N          25.7369   -5.4870   -4.0267 N.am      1 UNK        -0.4892 
      5 CA         26.0188   -4.7836   -2.7701 C.3       1 UNK         0.0835 
      6 C6         27.4739   -4.2518   -2.7157 C.3       12 UNK        -0.0855 
      7 S7         28.7617   -5.5194   -3.0095 S.3       12 UNK        -0.2931 
      8 C8         29.7174   -4.8192   -4.4109 C.3       12 UNK         0.0378 
      9 C9         30.7371   -3.7373   -4.0364 C.ar      12 UNK        -0.0802 
     10 C10        31.9233   -3.6115   -4.7710 C.ar      12 UNK        -0.0944 
     11 C11        32.8431   -2.5944   -4.4820 C.ar      12 UNK        -0.0787 
     12 C12        32.5644   -1.6819   -3.4602 C.ar      12 UNK        -0.0862 
     13 C13        31.3862   -1.7926   -2.7200 C.ar      12 UNK        -0.0733 
     14 C14        30.4972   -2.8298   -3.0013 C.ar      12 UNK        -0.0832 
     15 C15        31.0552   -0.8004   -1.6144 C.3       12 UNK         0.0240 
     16 S16        29.3820   -0.1000   -1.8160 S.3       12 UNK        -0.2522 
     17 C17        29.6444    1.0963   -3.1615 C.3       12 UNK        -0.0967 
     18 CA         29.4190    0.5414   -4.5943 C.3       5 UNK         0.0660 
     19 N          28.1034   -0.0929   -4.7703 N.am      5 UNK        -0.4015 
     20 C          27.5548   -0.4809   -5.9358 C.2       4 UNK         0.4946 
     21 O          28.1281   -0.4318   -7.0231 O.2       4 UNK        -0.5353 
     22 CA         26.0859   -0.9281   -5.9375 C.3       4 UNK         0.0277 
     23 CB         25.9926   -2.4485   -6.1274 C.3       4 UNK        -0.1981 
     24 N          25.2942   -0.4949   -4.7785 N.am      4 UNK        -0.4209 
     25 C          25.1111    0.7855   -4.4077 C.2       3 UNK         0.4942 
     26 O          25.6703    1.7366   -4.9630 O.2       3 UNK        -0.5208 
     27 CA         24.1542    1.0742   -3.2354 C.3       3 UNK         0.0250 
     28 CB         22.8526    1.7015   -3.7607 C.3       3 UNK        -0.1990 
     29 N          23.8242   -0.0998   -2.4212 N.am      3 UNK        -0.4232 
     30 C          24.6679   -0.7099   -1.5776 C.2       2 UNK         0.4993 
     31 O          25.8225   -0.3317   -1.3805 O.2       2 UNK        -0.5286 
     32 CA         24.1653   -1.9761   -0.8522 C.3       2 UNK         0.0209 
     33 CB         22.6416   -2.2174   -0.9691 C.3       2 UNK        -0.1931 
     34 N          24.9155   -3.1650   -1.2823 N.am      2 UNK        -0.4546 
     35 C          25.0319   -3.6148   -2.5412 C.2       1 UNK         0.5154 
     36 O          24.4486   -3.1000   -3.5000 O.2       1 UNK        -0.5181 
     37 C          29.6619    1.6928   -5.5896 C.2       5 UNK         0.5014 
     38 O          30.7585    1.7899   -6.1423 O.2       5 UNK        -0.5248 
     39 N          28.6332    2.5255   -5.7964 N.am      6 UNK        -0.4434 
     40 CA         28.6363    3.6289   -6.7533 C.3       6 UNK         0.0363 
     41 CB         28.2903    4.9339   -6.0183 C.3       6 UNK        -0.1936 
     42 C          27.6434    3.3864   -7.8985 C.2       6 UNK         0.5081 
     43 O          27.9144    3.8180   -9.0186 O.2       6 UNK        -0.5248 
     44 N          26.5096    2.7262   -7.6142 N.am      7 UNK        -0.4718 
     45 CA         25.3978    2.5830   -8.5582 C.3       7 UNK         0.0273 
     46 CB         24.1103    2.2468   -7.7862 C.3       7 UNK        -0.1935 
     47 C          25.6279    1.5673   -9.6910 C.2       7 UNK         0.5018 
     48 O          24.8984    1.6350  -10.6820 O.2       7 UNK        -0.5186 
     49 N          26.5918    0.6454   -9.5451 N.am      8 UNK        -0.4240 
     50 CA         26.8464   -0.4027  -10.5390 C.3       8 UNK         0.0235 
     51 CB         25.9844   -1.6418  -10.2353 C.3       8 UNK        -0.2000 
     52 C          28.3276   -0.7773  -10.6583 C.2       8 UNK         0.4941 
     53 O          28.8414   -0.8317  -11.7763 O.2       8 UNK        -0.5273 
     54 N          28.9831   -1.0610   -9.5262 N.am      9 UNK        -0.4262 
     55 CA         30.3589   -1.5569   -9.4746 C.3       9 UNK         0.0264 
     56 CB         30.5816   -2.2817   -8.1370 C.3       9 UNK        -0.1955 
     57 C          31.3986   -0.4447   -9.6892 C.2       9 UNK         0.5031 
     58 O          32.4297   -0.7074  -10.3098 O.2       9 UNK        -0.5390 
     59 N          31.0935    0.7681   -9.1981 N.am      10 UNK        -0.4204 
     60 CA         31.9015    1.9935   -9.2799 C.3       10 UNK         0.0237 
     61 CB         31.9685    2.5054  -10.7346 C.3       10 UNK        -0.1985 
     62 C          33.2894    1.8266   -8.6287 C.2       10 UNK         0.4970 
     63 O          34.3143    2.0828   -9.2645 O.2       10 UNK        -0.4914 
     64 N          33.2829    1.3837   -7.3691 N.am      11 UNK        -0.4285 
     65 CA         34.4715    1.0635   -6.5651 C.3       11 UNK         0.1007 
     66 C          34.2887    1.2984   -5.0395 C.2       11 UNK         0.5703 
     67 N          33.1533    1.7979   -4.5661 N.am      11 UNK        -0.7361 
     68 O          35.2098    1.0528   -4.2645 O.2       11 UNK        -0.4986 
     69 C69        35.0714   -0.3306   -6.9094 C.3       12 UNK        -0.0947 
     70 S70        33.8556   -1.6928   -6.8825 S.3       12 UNK        -0.2240 
     71 C71        34.1401   -2.4801   -5.2695 C.3       12 UNK         0.0194 
     72 H72        24.5165   -7.9492   -5.5868 H         1 UNK         0.0906 
     73 H73        23.5725   -6.5387   -6.0747 H         1 UNK         0.0906 
     74 H74        25.3218   -6.5521   -6.3040 H         1 UNK         0.0906 
     75 H75        26.3883   -5.3152   -4.7774 H         1 UNK         0.3140 
     76 H76        25.8825   -5.4984   -1.9552 H         1 UNK         0.1085 
     77 H77        27.6659   -3.8256   -1.7290 H         1 UNK         0.0836 
     78 H78        27.6086   -3.4331   -3.4237 H         1 UNK         0.0836 
     79 H79        30.2364   -5.6479   -4.8949 H         1 UNK         0.0731 
     80 H80        29.0307   -4.4159   -5.1564 H         1 UNK         0.0731 
     81 H81        32.1316   -4.3003   -5.5785 H         1 UNK         0.1312 
     82 H82        33.2652   -0.8882   -3.2410 H         1 UNK         0.1406 
     83 H83        29.6038   -2.8963   -2.4063 H         1 UNK         0.1631 
     84 H84        31.7900    0.0048   -1.5691 H         1 UNK         0.0717 
     85 H85        31.1046   -1.3185   -0.6559 H         1 UNK         0.0717 
     86 H86        30.6512    1.5068   -3.0645 H         1 UNK         0.0934 
     87 H87        28.9681    1.9318   -2.9677 H         1 UNK         0.0934 
     88 H88        30.1679   -0.2262   -4.7978 H         1 UNK         0.0739 
     89 H89        27.5452   -0.1737   -3.9323 H         1 UNK         0.3093 
     90 H90        25.6297   -0.4677   -6.8147 H         1 UNK         0.0818 
     91 H91        24.9581   -2.7763   -6.2312 H         1 UNK         0.0819 
     92 H92        26.5255   -2.7685   -7.0232 H         1 UNK         0.0819 
     93 H93        26.4339   -2.9828   -5.2907 H         1 UNK         0.0819 
     94 H94        24.8187   -1.2293   -4.2622 H         1 UNK         0.3041 
     95 H95        24.6494    1.8048   -2.5922 H         1 UNK         0.0784 
     96 H96        23.0590    2.6018   -4.3417 H         1 UNK         0.0793 
     97 H97        22.3055    1.0152   -4.4085 H         1 UNK         0.0793 
     98 H98        22.1927    1.9918   -2.9428 H         1 UNK         0.0793 
     99 H99        22.9039   -0.4968   -2.5458 H         1 UNK         0.3024 
    100 H100       24.3935   -1.8239    0.2043 H         1 UNK         0.1171 
    101 H101       22.3385   -3.0740   -0.3669 H         1 UNK         0.0786 
    102 H102       22.3252   -2.4138   -1.9941 H         1 UNK         0.0786 
    103 H103       22.0765   -1.3588   -0.6034 H         1 UNK         0.0786 
    104 H104       25.4563   -3.6181   -0.5584 H         1 UNK         0.2977 
    105 H105       27.7617    2.3436   -5.3118 H         1 UNK         0.3127 
    106 H106       29.6256    3.7470   -7.2001 H         1 UNK         0.0770 
    107 H107       27.3060    4.8869   -5.5503 H         1 UNK         0.0814 
    108 H108       28.2855    5.7804   -6.7065 H         1 UNK         0.0814 
    109 H109       29.0212    5.1539   -5.2401 H         1 UNK         0.0814 
    110 H110       26.3304    2.4105   -6.6657 H         1 UNK         0.2983 
    111 H111       25.2458    3.5529   -9.0377 H         1 UNK         0.0947 
    112 H112       23.2469    2.2404   -8.4529 H         1 UNK         0.0806 
    113 H113       23.9093    2.9821   -7.0068 H         1 UNK         0.0806 
    114 H114       24.1603    1.2656   -7.3163 H         1 UNK         0.0806 
    115 H115       27.1670    0.6545   -8.7120 H         1 UNK         0.3000 
    116 H116       26.5584   -0.0347  -11.5267 H         1 UNK         0.0850 
    117 H117       26.1746   -2.4380  -10.9564 H         1 UNK         0.0810 
    118 H118       24.9211   -1.4071  -10.2867 H         1 UNK         0.0810 
    119 H119       26.1902   -2.0425   -9.2435 H         1 UNK         0.0810 
    120 H120       28.5186   -0.9535   -8.6241 H         1 UNK         0.3040 
    121 H121       30.4849   -2.2902  -10.2744 H         1 UNK         0.0766 
    122 H122       31.5228   -2.8304   -8.1512 H         1 UNK         0.0812 
    123 H123       29.7933   -3.0075   -7.9374 H         1 UNK         0.0812 
    124 H124       30.6171   -1.5877   -7.2956 H         1 UNK         0.0812 
    125 H125       30.2375    0.8454   -8.6672 H         1 UNK         0.3205 
    126 H126       31.3772    2.7494   -8.6937 H         1 UNK         0.0754 
    127 H127       32.4864    3.4638  -10.7875 H         1 UNK         0.0769 
    128 H128       30.9705    2.6532  -11.1473 H         1 UNK         0.0769 
    129 H129       32.5010    1.8113  -11.3857 H         1 UNK         0.0769 
    130 H130       32.3860    1.2474   -6.9118 H         1 UNK         0.2981 
    131 H131       35.2313    1.8006   -6.8309 H         1 UNK         0.0541 
    132 H132       32.3689    1.9976   -5.1761 H         1 UNK         0.3459 
    133 H133       33.0819    1.9764   -3.5783 H         1 UNK         0.3459 
    134 H134       35.9230   -0.5705   -6.2710 H         1 UNK         0.0612 
    135 H135       35.4778   -0.2962   -7.9211 H         1 UNK         0.0612 
    136 H136       34.5638   -3.4724   -5.4299 H         1 UNK         0.0624 
    137 H137       34.8810   -1.9212   -4.6963 H         1 UNK         0.0624 
@<TRIPOS>BOND
     1    1    2 1    
     2    1   72 1    
     3    1   73 1    
     4    1   74 1    
     5    2    3 2    
     6    2    4 am   BACKBONE|DICT|INTERRES
     7    4    5 1    
     8    4   75 1    
     9    5    6 1    
    10    5   35 1    
    11    5   76 1    
    12    6    7 1    
    13    6   77 1    
    14    6   78 1    
    15    7    8 1    
    16    8    9 1    
    17    8   79 1    
    18    8   80 1    
    19    9   10 ar   
    20    9   14 ar   
    21   10   11 ar   
    22   10   81 1    
    23   11   12 ar   
    24   11   71 1    
    25   12   13 ar   
    26   12   82 1    
    27   13   14 ar   
    28   13   15 1    
    29   14   83 1    
    30   15   16 1    
    31   15   84 1    
    32   15   85 1    
    33   16   17 1    
    34   17   18 1    
    35   17   86 1    
    36   17   87 1    
    37   18   19 1    
    38   18   37 1    
    39   18   88 1    
    40   19   20 am   BACKBONE|DICT|INTERRES
    41   19   89 1    
    42   20   21 2    
    43   20   22 1    
    44   22   23 1    
    45   22   24 1    
    46   22   90 1    
    47   23   91 1    
    48   23   92 1    
    49   23   93 1    
    50   24   25 am   BACKBONE|DICT|INTERRES
    51   24   94 1    
    52   25   26 2    
    53   25   27 1    
    54   27   28 1    
    55   27   29 1    
    56   27   95 1    
    57   28   96 1    
    58   28   97 1    
    59   28   98 1    
    60   29   30 am   BACKBONE|DICT|INTERRES
    61   29   99 1    
    62   30   31 2    
    63   30   32 1    
    64   32   33 1    
    65   32   34 1    
    66   32  100 1    
    67   33  101 1    
    68   33  102 1    
    69   33  103 1    
    70   34   35 am   BACKBONE|DICT|INTERRES
    71   34  104 1    
    72   35   36 2    
    73   37   38 2    
    74   37   39 am   BACKBONE|DICT|INTERRES
    75   39   40 1    
    76   39  105 1    
    77   40   41 1    
    78   40   42 1    
    79   40  106 1    
    80   41  107 1    
    81   41  108 1    
    82   41  109 1    
    83   42   43 2    
    84   42   44 am   BACKBONE|DICT|INTERRES
    85   44   45 1    
    86   44  110 1    
    87   45   46 1    
    88   45   47 1    
    89   45  111 1    
    90   46  112 1    
    91   46  113 1    
    92   46  114 1    
    93   47   48 2    
    94   47   49 am   BACKBONE|DICT|INTERRES
    95   49   50 1    
    96   49  115 1    
    97   50   51 1    
    98   50   52 1    
    99   50  116 1    
   100   51  117 1    
   101   51  118 1    
   102   51  119 1    
   103   52   53 2    
   104   52   54 am   BACKBONE|DICT|INTERRES
   105   54   55 1    
   106   54  120 1    
   107   55   56 1    
   108   55   57 1    
   109   55  121 1    
   110   56  122 1    
   111   56  123 1    
   112   56  124 1    
   113   57   58 2    
   114   57   59 am   BACKBONE|DICT|INTERRES
   115   59   60 1    
   116   59  125 1    
   117   60   61 1    
   118   60   62 1    
   119   60  126 1    
   120   61  127 1    
   121   61  128 1    
   122   61  129 1    
   123   62   63 2    
   124   62   64 am   BACKBONE|DICT|INTERRES
   125   64   65 1    
   126   64  130 1    
   127   65   66 1    
   128   65   69 1    
   129   65  131 1    
   130   66   67 am   BACKBONE|DICT|INTERRES
   131   66   68 2    
   132   67  132 1    
   133   67  133 1    
   134   69   70 1    
   135   69  134 1    
   136   69  135 1    
   137   70   71 1    
   138   71  136 1    
   139   71  137 1    
@<TRIPOS>SUBSTRUCTURE
     1 UNK         1 GROUP             0       ****    0 ROOT    
