@<TRIPOS>MOLECULE
3R137
137   139    1
SMALL
USER_CHARGES


@<TRIPOS>ATOM
      1 CA         31.5468    0.6666   -0.5109 C.3       0 UNK        -0.2020 
      2 C          30.5716   -0.4718   -0.2488 C.2       0 UNK         0.4855 
      3 O          30.2722   -0.7627    0.9097 O.2       0 UNK        -0.5197 
      4 N          30.0837   -1.1152   -1.3168 N.am      1 UNK        -0.4892 
      5 CA         29.0928   -2.1940   -1.3171 C.3       1 UNK         0.0835 
      6 C6         29.5955   -3.4619   -0.5708 C.3       12 UNK        -0.0855 
      7 S7         28.7622   -4.9881   -1.1221 S.3       12 UNK        -0.2931 
      8 C8         30.0748   -5.8132   -2.0814 C.3       12 UNK         0.0378 
      9 C9         30.2725   -5.2079   -3.4667 C.ar      12 UNK        -0.0802 
     10 C10        31.5194   -4.7016   -3.8526 C.ar      12 UNK        -0.0944 
     11 C11        31.7270   -4.2414   -5.1585 C.ar      12 UNK        -0.0787 
     12 C12        30.6666   -4.2621   -6.0703 C.ar      12 UNK        -0.0862 
     13 C13        29.4132   -4.7507   -5.6932 C.ar      12 UNK        -0.0733 
     14 C14        29.2249   -5.2279   -4.3929 C.ar      12 UNK        -0.0832 
     15 C15        28.2740   -4.8071   -6.7008 C.3       12 UNK         0.0240 
     16 S16        26.9367   -3.6517   -6.2748 S.3       12 UNK        -0.2522 
     17 C17        27.7207   -2.0327   -6.5810 C.3       12 UNK        -0.0967 
     18 CA         26.7940   -1.0873   -7.3839 C.3       5 UNK         0.0660 
     19 N          25.4991   -0.9070   -6.7146 N.am      5 UNK        -0.4015 
     20 C          24.4665   -0.1471   -7.1057 C.2       4 UNK         0.4946 
     21 O          24.4908    0.5557   -8.1178 O.2       4 UNK        -0.5353 
     22 CA         23.1988   -0.1490   -6.2208 C.3       4 UNK         0.0277 
     23 CB         21.9377   -0.3880   -7.0703 C.3       4 UNK        -0.1981 
     24 N          23.2089   -1.1137   -5.1099 N.am      4 UNK        -0.4209 
     25 C          23.9691   -1.0392   -4.0087 C.2       3 UNK         0.4942 
     26 O          24.7886   -0.1401   -3.8066 O.2       3 UNK        -0.5208 
     27 CA         23.8166   -2.1821   -2.9949 C.3       3 UNK         0.0250 
     28 CB         24.2192   -3.5412   -3.6058 C.3       3 UNK        -0.1990 
     29 N          24.6503   -1.9031   -1.8286 N.am      3 UNK        -0.4232 
     30 C          24.5512   -2.4872   -0.6303 C.2       2 UNK         0.4993 
     31 O          23.6880   -3.3211   -0.3483 O.2       2 UNK        -0.5286 
     32 CA         25.6198   -2.0989    0.4092 C.3       2 UNK         0.0209 
     33 CB         25.4026   -2.7839    1.7720 C.3       2 UNK        -0.1931 
     34 N          26.9625   -2.4316   -0.0748 N.am      2 UNK        -0.4546 
     35 C          27.7099   -1.6587   -0.8727 C.2       1 UNK         0.5154 
     36 O          27.3257   -0.5599   -1.2821 O.2       1 UNK        -0.5181 
     37 C          27.5291    0.2315   -7.6955 C.2       5 UNK         0.5014 
     38 O          28.2911    0.2711   -8.6601 O.2       5 UNK        -0.5248 
     39 N          27.2607    1.2917   -6.9162 N.am      6 UNK        -0.4434 
     40 CA         27.7473    2.6624   -7.1196 C.3       6 UNK         0.0363 
     41 CB         27.2050    3.5545   -5.9917 C.3       6 UNK        -0.1936 
     42 C          27.4095    3.2710   -8.4958 C.2       6 UNK         0.5081 
     43 O          28.1063    4.1862   -8.9350 O.2       6 UNK        -0.5248 
     44 N          26.3634    2.7590   -9.1596 N.am      7 UNK        -0.4718 
     45 CA         26.0031    3.1244  -10.5303 C.3       7 UNK         0.0273 
     46 CB         24.5193    2.7903  -10.7565 C.3       7 UNK        -0.1935 
     47 C          26.8755    2.4330  -11.5974 C.2       7 UNK         0.5018 
     48 O          26.8600    2.8787  -12.7459 O.2       7 UNK        -0.5186 
     49 N          27.5862    1.3567  -11.2290 N.am      8 UNK        -0.4240 
     50 CA         28.3539    0.5077  -12.1428 C.3       8 UNK         0.0235 
     51 CB         27.8730   -0.9460  -11.9934 C.3       8 UNK        -0.2000 
     52 C          29.8690    0.5877  -11.9028 C.2       8 UNK         0.4941 
     53 O          30.6239    0.5347  -12.8752 O.2       8 UNK        -0.5273 
     54 N          30.2977    0.6906  -10.6391 N.am      9 UNK        -0.4262 
     55 CA         31.7011    0.6845  -10.2269 C.3       9 UNK         0.0264 
     56 CB         32.0943   -0.7497   -9.8270 C.3       9 UNK        -0.1955 
     57 C          31.9076    1.6450   -9.0518 C.2       9 UNK         0.5031 
     58 O          30.9434    2.0026   -8.3746 O.2       9 UNK        -0.5390 
     59 N          33.1713    2.0087   -8.7909 N.am      10 UNK        -0.4204 
     60 CA         33.5800    2.8883   -7.6859 C.3       10 UNK         0.0237 
     61 CB         35.0868    3.1746   -7.7921 C.3       10 UNK        -0.1985 
     62 C          33.2317    2.3455   -6.2858 C.2       10 UNK         0.4970 
     63 O          32.9871    3.1382   -5.3758 O.2       10 UNK        -0.4914 
     64 N          33.1945    1.0145   -6.1498 N.am      11 UNK        -0.4285 
     65 CA         32.6869    0.2950   -4.9733 C.3       11 UNK         0.1007 
     66 C          31.1351    0.2447   -4.8653 C.2       11 UNK         0.5703 
     67 N          30.3691    0.7585   -5.8167 N.am      11 UNK        -0.7361 
     68 O          30.6095   -0.2556   -3.8770 O.2       11 UNK        -0.4986 
     69 C69        33.3333   -1.1092   -4.8404 C.3       12 UNK        -0.0947 
     70 S70        33.1525   -2.1400   -6.3351 S.3       12 UNK        -0.2240 
     71 C71        33.1166   -3.8123   -5.6160 C.3       12 UNK         0.0194 
     72 H72        32.5007    0.4632   -0.0250 H         1 UNK         0.0906 
     73 H73        31.7326    0.8087   -1.5751 H         1 UNK         0.0906 
     74 H74        31.1509    1.5990   -0.1092 H         1 UNK         0.0906 
     75 H75        30.3286   -0.7795   -2.2503 H         1 UNK         0.3140 
     76 H76        28.9752   -2.4572   -2.3703 H         1 UNK         0.1085 
     77 H77        29.4862   -3.3585    0.5104 H         1 UNK         0.0836 
     78 H78        30.6673   -3.5804   -0.7376 H         1 UNK         0.0836 
     79 H79        31.0046   -5.8077   -1.5104 H         1 UNK         0.0731 
     80 H80        29.8039   -6.8631   -2.2014 H         1 UNK         0.0731 
     81 H81        32.3412   -4.7076   -3.1497 H         1 UNK         0.1312 
     82 H82        30.8280   -3.9177   -7.0827 H         1 UNK         0.1406 
     83 H83        28.2616   -5.6270   -4.1042 H         1 UNK         0.1631 
     84 H84        27.8687   -5.8196   -6.7237 H         1 UNK         0.0717 
     85 H85        28.6277   -4.5970   -7.7115 H         1 UNK         0.0717 
     86 H86        27.9885   -1.5957   -5.6165 H         1 UNK         0.0934 
     87 H87        28.6615   -2.1827   -7.1153 H         1 UNK         0.0934 
     88 H88        26.5812   -1.5558   -8.3470 H         1 UNK         0.0739 
     89 H89        25.3822   -1.4396   -5.8658 H         1 UNK         0.3093 
     90 H90        23.1267    0.8512   -5.7884 H         1 UNK         0.0818 
     91 H91        21.0320   -0.3156   -6.4679 H         1 UNK         0.0819 
     92 H92        21.8506    0.3540   -7.8655 H         1 UNK         0.0819 
     93 H93        21.9509   -1.3708   -7.5432 H         1 UNK         0.0819 
     94 H94        22.5758   -1.8959   -5.2008 H         1 UNK         0.3041 
     95 H95        22.7701   -2.2135   -2.6847 H         1 UNK         0.0784 
     96 H96        23.6715   -3.7579   -4.5233 H         1 UNK         0.0793 
     97 H97        25.2830   -3.5710   -3.8414 H         1 UNK         0.0793 
     98 H98        24.0147   -4.3612   -2.9173 H         1 UNK         0.0793 
     99 H99        25.3645   -1.1948   -1.9790 H         1 UNK         0.3024 
    100 H100       25.5450   -1.0198    0.5636 H         1 UNK         0.1171 
    101 H101       24.4207   -2.5402    2.1800 H         1 UNK         0.0786 
    102 H102       26.1443   -2.4579    2.5015 H         1 UNK         0.0786 
    103 H103       25.4641   -3.8702    1.6939 H         1 UNK         0.0786 
    104 H104       27.3148   -3.3510    0.1570 H         1 UNK         0.2977 
    105 H105       26.6029    1.1611   -6.1607 H         1 UNK         0.3127 
    106 H106       28.8338    2.6464   -7.0423 H         1 UNK         0.0770 
    107 H107       26.1150    3.5928   -5.9968 H         1 UNK         0.0814 
    108 H108       27.5266    3.1979   -5.0129 H         1 UNK         0.0814 
    109 H109       27.5679    4.5781   -6.0955 H         1 UNK         0.0814 
    110 H110       25.8188    2.0172   -8.7287 H         1 UNK         0.2983 
    111 H111       26.1311    4.2022  -10.6534 H         1 UNK         0.0947 
    112 H112       24.1975    3.0914  -11.7544 H         1 UNK         0.0806 
    113 H113       23.8816    3.3089  -10.0405 H         1 UNK         0.0806 
    114 H114       24.3284    1.7205  -10.6609 H         1 UNK         0.0806 
    115 H115       27.5986    1.0864  -10.2499 H         1 UNK         0.3000 
    116 H116       28.1771    0.8094  -13.1775 H         1 UNK         0.0850 
    117 H117       28.4155   -1.6086  -12.6693 H         1 UNK         0.0810 
    118 H118       26.8131   -1.0382  -12.2310 H         1 UNK         0.0810 
    119 H119       28.0226   -1.3200  -10.9796 H         1 UNK         0.0810 
    120 H120       29.6264    0.7414   -9.8736 H         1 UNK         0.3040 
    121 H121       32.3352    1.0223  -11.0493 H         1 UNK         0.0766 
    122 H122       33.1395   -0.8076   -9.5212 H         1 UNK         0.0812 
    123 H123       31.9643   -1.4418  -10.6590 H         1 UNK         0.0812 
    124 H124       31.4891   -1.1128   -8.9946 H         1 UNK         0.0812 
    125 H125       33.9083    1.6662   -9.3911 H         1 UNK         0.3205 
    126 H126       33.0438    3.8321   -7.8062 H         1 UNK         0.0754 
    127 H127       35.4133    3.8474   -6.9976 H         1 UNK         0.0769 
    128 H128       35.3350    3.6532   -8.7398 H         1 UNK         0.0769 
    129 H129       35.6789    2.2621   -7.7098 H         1 UNK         0.0769 
    130 H130       33.4051    0.4379   -6.9501 H         1 UNK         0.2981 
    131 H131       33.0036    0.8589   -4.0941 H         1 UNK         0.0541 
    132 H132       30.7576    1.1863   -6.6519 H         1 UNK         0.3459 
    133 H133       29.3724    0.7331   -5.6940 H         1 UNK         0.3459 
    134 H134       32.9283   -1.6405   -3.9767 H         1 UNK         0.0612 
    135 H135       34.4007   -1.0000   -4.6440 H         1 UNK         0.0612 
    136 H136       33.8382   -3.8702   -4.7996 H         1 UNK         0.0624 
    137 H137       33.4592   -4.5175   -6.3743 H         1 UNK         0.0624 
@<TRIPOS>BOND
     1    1    2 1    
     2    1   72 1    
     3    1   73 1    
     4    1   74 1    
     5    2    3 2    
     6    2    4 am   BACKBONE|DICT|INTERRES
     7    4    5 1    
     8    4   75 1    
     9    5    6 1    
    10    5   35 1    
    11    5   76 1    
    12    6    7 1    
    13    6   77 1    
    14    6   78 1    
    15    7    8 1    
    16    8    9 1    
    17    8   79 1    
    18    8   80 1    
    19    9   10 ar   
    20    9   14 ar   
    21   10   11 ar   
    22   10   81 1    
    23   11   12 ar   
    24   11   71 1    
    25   12   13 ar   
    26   12   82 1    
    27   13   14 ar   
    28   13   15 1    
    29   14   83 1    
    30   15   16 1    
    31   15   84 1    
    32   15   85 1    
    33   16   17 1    
    34   17   18 1    
    35   17   86 1    
    36   17   87 1    
    37   18   19 1    
    38   18   37 1    
    39   18   88 1    
    40   19   20 am   BACKBONE|DICT|INTERRES
    41   19   89 1    
    42   20   21 2    
    43   20   22 1    
    44   22   23 1    
    45   22   24 1    
    46   22   90 1    
    47   23   91 1    
    48   23   92 1    
    49   23   93 1    
    50   24   25 am   BACKBONE|DICT|INTERRES
    51   24   94 1    
    52   25   26 2    
    53   25   27 1    
    54   27   28 1    
    55   27   29 1    
    56   27   95 1    
    57   28   96 1    
    58   28   97 1    
    59   28   98 1    
    60   29   30 am   BACKBONE|DICT|INTERRES
    61   29   99 1    
    62   30   31 2    
    63   30   32 1    
    64   32   33 1    
    65   32   34 1    
    66   32  100 1    
    67   33  101 1    
    68   33  102 1    
    69   33  103 1    
    70   34   35 am   BACKBONE|DICT|INTERRES
    71   34  104 1    
    72   35   36 2    
    73   37   38 2    
    74   37   39 am   BACKBONE|DICT|INTERRES
    75   39   40 1    
    76   39  105 1    
    77   40   41 1    
    78   40   42 1    
    79   40  106 1    
    80   41  107 1    
    81   41  108 1    
    82   41  109 1    
    83   42   43 2    
    84   42   44 am   BACKBONE|DICT|INTERRES
    85   44   45 1    
    86   44  110 1    
    87   45   46 1    
    88   45   47 1    
    89   45  111 1    
    90   46  112 1    
    91   46  113 1    
    92   46  114 1    
    93   47   48 2    
    94   47   49 am   BACKBONE|DICT|INTERRES
    95   49   50 1    
    96   49  115 1    
    97   50   51 1    
    98   50   52 1    
    99   50  116 1    
   100   51  117 1    
   101   51  118 1    
   102   51  119 1    
   103   52   53 2    
   104   52   54 am   BACKBONE|DICT|INTERRES
   105   54   55 1    
   106   54  120 1    
   107   55   56 1    
   108   55   57 1    
   109   55  121 1    
   110   56  122 1    
   111   56  123 1    
   112   56  124 1    
   113   57   58 2    
   114   57   59 am   BACKBONE|DICT|INTERRES
   115   59   60 1    
   116   59  125 1    
   117   60   61 1    
   118   60   62 1    
   119   60  126 1    
   120   61  127 1    
   121   61  128 1    
   122   61  129 1    
   123   62   63 2    
   124   62   64 am   BACKBONE|DICT|INTERRES
   125   64   65 1    
   126   64  130 1    
   127   65   66 1    
   128   65   69 1    
   129   65  131 1    
   130   66   67 am   BACKBONE|DICT|INTERRES
   131   66   68 2    
   132   67  132 1    
   133   67  133 1    
   134   69   70 1    
   135   69  134 1    
   136   69  135 1    
   137   70   71 1    
   138   71  136 1    
   139   71  137 1    
@<TRIPOS>SUBSTRUCTURE
     1 UNK         1 GROUP             0       ****    0 ROOT    
