@<TRIPOS>MOLECULE
3R137
137   139    1
SMALL
USER_CHARGES


@<TRIPOS>ATOM
      1 CA         24.6423   -5.8644   -2.2561 C.3       0 UNK        -0.2020 
      2 C          25.5368   -4.8939   -1.5005 C.2       0 UNK         0.4855 
      3 O          25.0406   -4.1043   -0.6962 O.2       0 UNK        -0.5197 
      4 N          26.8501   -4.9425   -1.7634 N.am      1 UNK        -0.4892 
      5 CA         27.8884   -4.0741   -1.1933 C.3       1 UNK         0.0835 
      6 C6         29.2812   -4.4930   -1.7273 C.3       12 UNK        -0.0855 
      7 S7         30.6727   -3.5705   -0.9844 S.3       12 UNK        -0.2931 
      8 C8         31.8234   -3.4244   -2.3941 C.3       12 UNK         0.0378 
      9 C9         31.2432   -2.6113   -3.5448 C.ar      12 UNK        -0.0802 
     10 C10        30.9009   -3.2344   -4.7490 C.ar      12 UNK        -0.0944 
     11 C11        30.3576   -2.4952   -5.8041 C.ar      12 UNK        -0.0787 
     12 C12        30.1604   -1.1208   -5.6486 C.ar      12 UNK        -0.0862 
     13 C13        30.4892   -0.4868   -4.4459 C.ar      12 UNK        -0.0733 
     14 C14        31.0407   -1.2362   -3.4026 C.ar      12 UNK        -0.0832 
     15 C15        30.2500    1.0039   -4.2579 C.3       12 UNK         0.0240 
     16 S16        28.7277    1.2979   -3.3065 S.3       12 UNK        -0.2522 
     17 C17        27.6246    2.0802   -4.5308 C.3       12 UNK        -0.0967 
     18 CA         27.2388    1.1762   -5.7278 C.3       5 UNK         0.0660 
     19 N          26.7059   -0.1294   -5.3122 N.am      5 UNK        -0.4015 
     20 C          26.4159   -1.1526   -6.1328 C.2       4 UNK         0.4946 
     21 O          26.6047   -1.1179   -7.3489 O.2       4 UNK        -0.5353 
     22 CA         25.7368   -2.3918   -5.5238 C.3       4 UNK         0.0277 
     23 CB         26.7110   -3.5781   -5.4387 C.3       4 UNK        -0.1981 
     24 N          25.1555   -2.1267   -4.2047 N.am      4 UNK        -0.4209 
     25 C          23.9949   -1.4810   -4.0081 C.2       3 UNK         0.4942 
     26 O          23.2963   -1.0543   -4.9278 O.2       3 UNK        -0.5208 
     27 CA         23.5359   -1.2502   -2.5565 C.3       3 UNK         0.0250 
     28 CB         22.4859   -2.2952   -2.1472 C.3       3 UNK        -0.1990 
     29 N          24.6448   -1.2645   -1.5990 N.am      3 UNK        -0.4232 
     30 C          25.4971   -0.2412   -1.4343 C.2       2 UNK         0.4993 
     31 O          25.3750    0.8397   -2.0104 O.2       2 UNK        -0.5286 
     32 CA         26.7053   -0.4607   -0.5020 C.3       2 UNK         0.0209 
     33 CB         26.3925    0.0534    0.9122 C.3       2 UNK        -0.1931 
     34 N          27.1629   -1.8528   -0.4219 N.am      2 UNK        -0.4546 
     35 C          27.5631   -2.5896   -1.4682 C.2       1 UNK         0.5154 
     36 O          27.5960   -2.1657   -2.6228 O.2       1 UNK        -0.5181 
     37 C          26.3169    1.9439   -6.7016 C.2       5 UNK         0.5014 
     38 O          26.7951    2.8508   -7.3838 O.2       5 UNK        -0.5248 
     39 N          25.0382    1.5461   -6.8039 N.am      6 UNK        -0.4434 
     40 CA         24.0799    2.0023   -7.8158 C.3       6 UNK         0.0363 
     41 CB         22.7114    1.3641   -7.5294 C.3       6 UNK        -0.1936 
     42 C          24.5140    1.7160   -9.2696 C.2       6 UNK         0.5081 
     43 O          24.0312    2.3901  -10.1793 O.2       6 UNK        -0.5248 
     44 N          25.4342    0.7586   -9.4696 N.am      7 UNK        -0.4718 
     45 CA         26.0953    0.4860  -10.7506 C.3       7 UNK         0.0273 
     46 CB         26.7629   -0.8977  -10.6774 C.3       7 UNK        -0.1935 
     47 C          27.1278    1.5588  -11.1638 C.2       7 UNK         0.5018 
     48 O          27.5666    1.5323  -12.3145 O.2       7 UNK        -0.5186 
     49 N          27.4778    2.4645  -10.2351 N.am      8 UNK        -0.4240 
     50 CA         28.4886    3.5270  -10.2886 C.3       8 UNK         0.0235 
     51 CB         28.3710    4.4057  -11.5508 C.3       8 UNK        -0.2000 
     52 C          29.9142    2.9830  -10.0969 C.2       8 UNK         0.4941 
     53 O          30.2845    1.9815  -10.7134 O.2       8 UNK        -0.5273 
     54 N          30.6836    3.6900   -9.2537 N.am      9 UNK        -0.4262 
     55 CA         32.0420    3.3865   -8.7761 C.3       9 UNK         0.0264 
     56 CB         33.0373    3.2602   -9.9503 C.3       9 UNK        -0.1955 
     57 C          32.1015    2.1599   -7.8428 C.2       9 UNK         0.5031 
     58 O          31.1315    1.4091   -7.7229 O.2       9 UNK        -0.5390 
     59 N          33.2467    1.9937   -7.1692 N.am      10 UNK        -0.4204 
     60 CA         33.5408    0.8341   -6.3276 C.3       10 UNK         0.0237 
     61 CB         34.5798    1.2182   -5.2618 C.3       10 UNK        -0.1985 
     62 C          34.0476   -0.3226   -7.1981 C.2       10 UNK         0.4970 
     63 O          34.9370   -0.1074   -8.0252 O.2       10 UNK        -0.4914 
     64 N          33.4880   -1.5188   -6.9905 N.am      11 UNK        -0.4285 
     65 CA         33.8239   -2.7308   -7.7574 C.3       11 UNK         0.1007 
     66 C          35.1192   -3.4537   -7.2864 C.2       11 UNK         0.5703 
     67 N          35.7391   -3.0607   -6.1795 N.am      11 UNK        -0.7361 
     68 O          35.5777   -4.3839   -7.9456 O.2       11 UNK        -0.4986 
     69 C69        32.6287   -3.7163   -7.8440 C.3       12 UNK        -0.0947 
     70 S70        31.1075   -2.9181   -8.4636 S.3       12 UNK        -0.2240 
     71 C71        29.9391   -3.1885   -7.0945 C.3       12 UNK         0.0194 
     72 H72        24.0674   -5.3334   -3.0142 H         1 UNK         0.0906 
     73 H73        25.2175   -6.6465   -2.7513 H         1 UNK         0.0906 
     74 H74        23.9437   -6.3435   -1.5706 H         1 UNK         0.0906 
     75 H75        27.1799   -5.6089   -2.4468 H         1 UNK         0.3140 
     76 H76        27.8833   -4.2336   -0.1130 H         1 UNK         0.1085 
     77 H77        29.3024   -4.3924   -2.8128 H         1 UNK         0.0836 
     78 H78        29.4508   -5.5518   -1.5250 H         1 UNK         0.0836 
     79 H79        32.1049   -4.4242   -2.7286 H         1 UNK         0.0731 
     80 H80        32.7431   -2.9490   -2.0502 H         1 UNK         0.0731 
     81 H81        31.0430   -4.3007   -4.8596 H         1 UNK         0.1312 
     82 H82        29.7449   -0.5520   -6.4681 H         1 UNK         0.1406 
     83 H83        31.2886   -0.7531   -2.4672 H         1 UNK         0.1631 
     84 H84        30.2065    1.5171   -5.2185 H         1 UNK         0.0717 
     85 H85        31.0915    1.4436   -3.7206 H         1 UNK         0.0717 
     86 H86        26.7271    2.4019   -3.9983 H         1 UNK         0.0934 
     87 H87        28.1084    2.9939   -4.8825 H         1 UNK         0.0934 
     88 H88        28.1447    0.9750   -6.2988 H         1 UNK         0.0739 
     89 H89        26.5713   -0.2552   -4.3182 H         1 UNK         0.3093 
     90 H90        24.9274   -2.6793   -6.1985 H         1 UNK         0.0818 
     91 H91        27.6216   -3.3226   -4.8969 H         1 UNK         0.0819 
     92 H92        26.2545   -4.4368   -4.9469 H         1 UNK         0.0819 
     93 H93        27.0094   -3.9003   -6.4365 H         1 UNK         0.0819 
     94 H94        25.7412   -2.3558   -3.4086 H         1 UNK         0.3041 
     95 H95        23.0590   -0.2681   -2.5187 H         1 UNK         0.0784 
     96 H96        21.6224   -2.2600   -2.8129 H         1 UNK         0.0793 
     97 H97        22.8836   -3.3088   -2.1858 H         1 UNK         0.0793 
     98 H98        22.1218   -2.1166   -1.1353 H         1 UNK         0.0793 
     99 H99        24.8145   -2.1357   -1.1033 H         1 UNK         0.3024 
    100 H100       27.5312    0.1281   -0.9050 H         1 UNK         0.1171 
    101 H101       27.2698    0.0012    1.5574 H         1 UNK         0.0786 
    102 H102       26.0744    1.0967    0.8860 H         1 UNK         0.0786 
    103 H103       25.5926   -0.5200    1.3825 H         1 UNK         0.0786 
    104 H104       27.1157   -2.2895    0.4876 H         1 UNK         0.2977 
    105 H105       24.7254    0.7955   -6.2033 H         1 UNK         0.3127 
    106 H106       23.9846    3.0853   -7.7141 H         1 UNK         0.0770 
    107 H107       22.7536    0.2757   -7.5921 H         1 UNK         0.0814 
    108 H108       21.9629    1.7040   -8.2466 H         1 UNK         0.0814 
    109 H109       22.3493    1.6276   -6.5355 H         1 UNK         0.0814 
    110 H110       25.7691    0.2240   -8.6731 H         1 UNK         0.2983 
    111 H111       25.3306    0.4566  -11.5299 H         1 UNK         0.0947 
    112 H112       27.2058   -1.1701  -11.6363 H         1 UNK         0.0806 
    113 H113       26.0434   -1.6751  -10.4199 H         1 UNK         0.0806 
    114 H114       27.5606   -0.9197   -9.9333 H         1 UNK         0.0806 
    115 H115       27.0492    2.3674   -9.3201 H         1 UNK         0.3000 
    116 H116       28.2573    4.1636   -9.4328 H         1 UNK         0.0850 
    117 H117       29.0106    5.2852  -11.4692 H         1 UNK         0.0810 
    118 H118       27.3501    4.7581  -11.6978 H         1 UNK         0.0810 
    119 H119       28.6778    3.8721  -12.4507 H         1 UNK         0.0810 
    120 H120       30.2570    4.4892   -8.8057 H         1 UNK         0.3040 
    121 H121       32.3399    4.2494   -8.1782 H         1 UNK         0.0766 
    122 H122       32.9588    4.1081  -10.6307 H         1 UNK         0.0812 
    123 H123       32.8721    2.3504  -10.5282 H         1 UNK         0.0812 
    124 H124       34.0676    3.2289   -9.5947 H         1 UNK         0.0812 
    125 H125       34.0135    2.6275   -7.3431 H         1 UNK         0.3205 
    126 H126       32.6313    0.5240   -5.8145 H         1 UNK         0.0754 
    127 H127       34.7939    0.3741   -4.6050 H         1 UNK         0.0769 
    128 H128       34.2187    2.0324   -4.6330 H         1 UNK         0.0769 
    129 H129       35.5240    1.5321   -5.7091 H         1 UNK         0.0769 
    130 H130       32.7489   -1.6178   -6.3089 H         1 UNK         0.2981 
    131 H131       34.0334   -2.4156   -8.7816 H         1 UNK         0.0541 
    132 H132       35.3751   -2.2974   -5.6334 H         1 UNK         0.3459 
    133 H133       36.5800   -3.5348   -5.8902 H         1 UNK         0.3459 
    134 H134       32.8641   -4.5360   -8.5251 H         1 UNK         0.0612 
    135 H135       32.4425   -4.1795   -6.8751 H         1 UNK         0.0612 
    136 H136       28.9633   -2.8109   -7.4024 H         1 UNK         0.0624 
    137 H137       29.8147   -4.2606   -6.9348 H         1 UNK         0.0624 
@<TRIPOS>BOND
     1    1    2 1    
     2    1   72 1    
     3    1   73 1    
     4    1   74 1    
     5    2    3 2    
     6    2    4 am   BACKBONE|DICT|INTERRES
     7    4    5 1    
     8    4   75 1    
     9    5    6 1    
    10    5   35 1    
    11    5   76 1    
    12    6    7 1    
    13    6   77 1    
    14    6   78 1    
    15    7    8 1    
    16    8    9 1    
    17    8   79 1    
    18    8   80 1    
    19    9   10 ar   
    20    9   14 ar   
    21   10   11 ar   
    22   10   81 1    
    23   11   12 ar   
    24   11   71 1    
    25   12   13 ar   
    26   12   82 1    
    27   13   14 ar   
    28   13   15 1    
    29   14   83 1    
    30   15   16 1    
    31   15   84 1    
    32   15   85 1    
    33   16   17 1    
    34   17   18 1    
    35   17   86 1    
    36   17   87 1    
    37   18   19 1    
    38   18   37 1    
    39   18   88 1    
    40   19   20 am   BACKBONE|DICT|INTERRES
    41   19   89 1    
    42   20   21 2    
    43   20   22 1    
    44   22   23 1    
    45   22   24 1    
    46   22   90 1    
    47   23   91 1    
    48   23   92 1    
    49   23   93 1    
    50   24   25 am   BACKBONE|DICT|INTERRES
    51   24   94 1    
    52   25   26 2    
    53   25   27 1    
    54   27   28 1    
    55   27   29 1    
    56   27   95 1    
    57   28   96 1    
    58   28   97 1    
    59   28   98 1    
    60   29   30 am   BACKBONE|DICT|INTERRES
    61   29   99 1    
    62   30   31 2    
    63   30   32 1    
    64   32   33 1    
    65   32   34 1    
    66   32  100 1    
    67   33  101 1    
    68   33  102 1    
    69   33  103 1    
    70   34   35 am   BACKBONE|DICT|INTERRES
    71   34  104 1    
    72   35   36 2    
    73   37   38 2    
    74   37   39 am   BACKBONE|DICT|INTERRES
    75   39   40 1    
    76   39  105 1    
    77   40   41 1    
    78   40   42 1    
    79   40  106 1    
    80   41  107 1    
    81   41  108 1    
    82   41  109 1    
    83   42   43 2    
    84   42   44 am   BACKBONE|DICT|INTERRES
    85   44   45 1    
    86   44  110 1    
    87   45   46 1    
    88   45   47 1    
    89   45  111 1    
    90   46  112 1    
    91   46  113 1    
    92   46  114 1    
    93   47   48 2    
    94   47   49 am   BACKBONE|DICT|INTERRES
    95   49   50 1    
    96   49  115 1    
    97   50   51 1    
    98   50   52 1    
    99   50  116 1    
   100   51  117 1    
   101   51  118 1    
   102   51  119 1    
   103   52   53 2    
   104   52   54 am   BACKBONE|DICT|INTERRES
   105   54   55 1    
   106   54  120 1    
   107   55   56 1    
   108   55   57 1    
   109   55  121 1    
   110   56  122 1    
   111   56  123 1    
   112   56  124 1    
   113   57   58 2    
   114   57   59 am   BACKBONE|DICT|INTERRES
   115   59   60 1    
   116   59  125 1    
   117   60   61 1    
   118   60   62 1    
   119   60  126 1    
   120   61  127 1    
   121   61  128 1    
   122   61  129 1    
   123   62   63 2    
   124   62   64 am   BACKBONE|DICT|INTERRES
   125   64   65 1    
   126   64  130 1    
   127   65   66 1    
   128   65   69 1    
   129   65  131 1    
   130   66   67 am   BACKBONE|DICT|INTERRES
   131   66   68 2    
   132   67  132 1    
   133   67  133 1    
   134   69   70 1    
   135   69  134 1    
   136   69  135 1    
   137   70   71 1    
   138   71  136 1    
   139   71  137 1    
@<TRIPOS>SUBSTRUCTURE
     1 UNK         1 GROUP             0       ****    0 ROOT    
