@<TRIPOS>MOLECULE
3R137
137   139    1
SMALL
USER_CHARGES


@<TRIPOS>ATOM
      1 CA         23.6824   -4.4842   -7.2306 C.3       0 UNK        -0.2020 
      2 C          24.3448   -5.3656   -6.1827 C.2       0 UNK         0.4855 
      3 O          23.7117   -6.2865   -5.6668 O.2       0 UNK        -0.5197 
      4 N          25.6133   -5.0865   -5.8555 N.am      1 UNK        -0.4892 
      5 CA         26.4006   -5.8015   -4.8397 C.3       1 UNK         0.0835 
      6 C6         27.9172   -5.7103   -5.1514 C.3       12 UNK        -0.0855 
      7 S7         28.6054   -4.0188   -5.0356 S.3       12 UNK        -0.2931 
      8 C8         29.6928   -4.2201   -3.5890 C.3       12 UNK         0.0378 
      9 C9         30.2350   -2.8826   -3.1170 C.ar      12 UNK        -0.0802 
     10 C10        31.4333   -2.3830   -3.6343 C.ar      12 UNK        -0.0944 
     11 C11        31.9243   -1.1423   -3.2170 C.ar      12 UNK        -0.0787 
     12 C12        31.2076   -0.4025   -2.2721 C.ar      12 UNK        -0.0862 
     13 C13        30.0027   -0.8899   -1.7539 C.ar      12 UNK        -0.0733 
     14 C14        29.5309   -2.1394   -2.1661 C.ar      12 UNK        -0.0832 
     15 C15        29.1836   -0.0459   -0.7869 C.3       12 UNK         0.0240 
     16 S16        27.6420    0.5624   -1.5526 S.3       12 UNK        -0.2522 
     17 C17        28.2726    1.3733   -3.0630 C.3       12 UNK        -0.0967 
     18 CA         28.0551    0.4712   -4.3120 C.3       5 UNK         0.0660 
     19 N          26.6342    0.3250   -4.6419 N.am      5 UNK        -0.4015 
     20 C          25.8382    1.2392   -5.2179 C.2       4 UNK         0.4946 
     21 O          26.2232    2.3256   -5.6540 O.2       4 UNK        -0.5353 
     22 CA         24.3454    0.8846   -5.2953 C.3       4 UNK         0.0277 
     23 CB         24.0626   -0.0218   -6.5043 C.3       4 UNK        -0.1981 
     24 N          23.8637    0.2301   -4.0769 N.am      4 UNK        -0.4209 
     25 C          23.7676    0.7948   -2.8668 C.2       3 UNK         0.4942 
     26 O          24.0146    1.9805   -2.6454 O.2       3 UNK        -0.5208 
     27 CA         23.3163   -0.1071   -1.7000 C.3       3 UNK         0.0250 
     28 CB         21.7868   -0.2999   -1.7152 C.3       3 UNK        -0.1990 
     29 N          24.0156   -1.3999   -1.5860 N.am      3 UNK        -0.4232 
     30 C          24.0210   -2.4287   -2.4451 C.2       2 UNK         0.4993 
     31 O          23.4451   -2.4231   -3.5383 O.2       2 UNK        -0.5286 
     32 CA         24.7979   -3.6802   -2.0214 C.3       2 UNK         0.0209 
     33 CB         23.9175   -4.5985   -1.1522 C.3       2 UNK        -0.1931 
     34 N          25.2001   -4.3571   -3.2478 N.am      2 UNK        -0.4546 
     35 C          26.0719   -5.3602   -3.3912 C.2       1 UNK         0.5154 
     36 O          26.6297   -5.9161   -2.4436 O.2       1 UNK        -0.5181 
     37 C          28.8754    0.8855   -5.5489 C.2       5 UNK         0.5014 
     38 O          29.0086    0.0813   -6.4739 O.2       5 UNK        -0.5248 
     39 N          29.3592    2.1354   -5.5776 N.am      6 UNK        -0.4434 
     40 CA         30.1101    2.7370   -6.6808 C.3       6 UNK         0.0363 
     41 CB         30.4928    4.1758   -6.3025 C.3       6 UNK        -0.1936 
     42 C          29.3804    2.7168   -8.0345 C.2       6 UNK         0.5081 
     43 O          30.0482    2.6345   -9.0635 O.2       6 UNK        -0.5248 
     44 N          28.0402    2.7523   -8.0237 N.am      7 UNK        -0.4718 
     45 CA         27.2158    2.6539   -9.2313 C.3       7 UNK         0.0273 
     46 CB         25.8025    3.1772   -8.9277 C.3       7 UNK        -0.1935 
     47 C          27.1543    1.2309   -9.8189 C.2       7 UNK         0.5018 
     48 O          26.8027    1.0922  -10.9911 O.2       7 UNK        -0.5186 
     49 N          27.4813    0.2098   -9.0137 N.am      8 UNK        -0.4240 
     50 CA         27.4884   -1.1966   -9.4163 C.3       8 UNK         0.0235 
     51 CB         26.7718   -2.0403   -8.3478 C.3       8 UNK        -0.2000 
     52 C          28.9181   -1.7055   -9.6375 C.2       8 UNK         0.4941 
     53 O          29.1974   -2.2899  -10.6847 O.2       8 UNK        -0.5273 
     54 N          29.7923   -1.4917   -8.6462 N.am      9 UNK        -0.4262 
     55 CA         31.1502   -2.0385   -8.6083 C.3       9 UNK         0.0264 
     56 CB         31.5432   -2.2604   -7.1399 C.3       9 UNK        -0.1955 
     57 C          32.2012   -1.1724   -9.3222 C.2       9 UNK         0.5031 
     58 O          33.3222   -1.6477   -9.5083 O.2       9 UNK        -0.5390 
     59 N          31.8519    0.0745   -9.6785 N.am      10 UNK        -0.4204 
     60 CA         32.7198    1.0958  -10.2891 C.3       10 UNK         0.0237 
     61 CB         33.2230    0.6478  -11.6788 C.3       10 UNK        -0.1985 
     62 C          33.8637    1.5771   -9.3690 C.2       10 UNK         0.4970 
     63 O          34.8368    2.1512   -9.8599 O.2       10 UNK        -0.4914 
     64 N          33.7243    1.3554   -8.0554 N.am      11 UNK        -0.4285 
     65 CA         34.6812    1.7452   -7.0082 C.3       11 UNK         0.1007 
     66 C          34.6616    3.2526   -6.6146 C.2       11 UNK         0.5703 
     67 N          33.8189    4.0882   -7.2094 N.am      11 UNK        -0.7361 
     68 O          35.4438    3.6780   -5.7676 O.2       11 UNK        -0.4986 
     69 C69        34.5904    0.7979   -5.7806 C.3       12 UNK        -0.0947 
     70 S70        32.9244    0.6760   -5.0460 S.3       12 UNK        -0.2240 
     71 C71        33.2266   -0.6023   -3.7881 C.3       12 UNK         0.0194 
     72 H72        23.2532   -5.0984   -8.0218 H         1 UNK         0.0906 
     73 H73        22.8802   -3.9024   -6.7768 H         1 UNK         0.0906 
     74 H74        24.3878   -3.7918   -7.6874 H         1 UNK         0.0906 
     75 H75        26.0949   -4.3189   -6.3028 H         1 UNK         0.3140 
     76 H76        26.1287   -6.8584   -4.8919 H         1 UNK         0.1085 
     77 H77        28.4740   -6.3836   -4.4967 H         1 UNK         0.0836 
     78 H78        28.1046   -6.0789   -6.1612 H         1 UNK         0.0836 
     79 H79        30.5142   -4.8915   -3.8444 H         1 UNK         0.0731 
     80 H80        29.1423   -4.7004   -2.7785 H         1 UNK         0.0731 
     81 H81        31.9797   -2.9587   -4.3683 H         1 UNK         0.1312 
     82 H82        31.5793    0.5644   -1.9609 H         1 UNK         0.1406 
     83 H83        28.5950   -2.5149   -1.7745 H         1 UNK         0.1631 
     84 H84        29.7630    0.8065   -0.4284 H         1 UNK         0.0717 
     85 H85        28.9343   -0.6400    0.0934 H         1 UNK         0.0717 
     86 H86        27.7580    2.3293   -3.1767 H         1 UNK         0.0934 
     87 H87        29.3272    1.6113   -2.9161 H         1 UNK         0.0934 
     88 H88        28.4090   -0.5321   -4.0769 H         1 UNK         0.0739 
     89 H89        26.2110   -0.5387   -4.3395 H         1 UNK         0.3093 
     90 H90        23.7904    1.8164   -5.4231 H         1 UNK         0.0818 
     91 H91        24.4626    0.4062   -7.4242 H         1 UNK         0.0819 
     92 H92        24.5085   -1.0089   -6.3794 H         1 UNK         0.0819 
     93 H93        22.9911   -0.1588   -6.6510 H         1 UNK         0.0819 
     94 H94        23.6261   -0.7598   -4.1347 H         1 UNK         0.3041 
     95 H95        23.5627    0.4343   -0.7850 H         1 UNK         0.0784 
     96 H96        21.2731    0.6624   -1.7128 H         1 UNK         0.0793 
     97 H97        21.4508   -0.8434   -2.5988 H         1 UNK         0.0793 
     98 H98        21.4486   -0.8491   -0.8365 H         1 UNK         0.0793 
     99 H99        24.5501   -1.5056   -0.7343 H         1 UNK         0.3024 
    100 H100       25.6936   -3.3843   -1.4710 H         1 UNK         0.1171 
    101 H101       23.5771   -4.0812   -0.2543 H         1 UNK         0.0786 
    102 H102       23.0309   -4.9325   -1.6931 H         1 UNK         0.0786 
    103 H103       24.4615   -5.4842   -0.8241 H         1 UNK         0.0786 
    104 H104       24.7728   -3.9667   -4.0792 H         1 UNK         0.2977 
    105 H105       29.1543    2.7429   -4.7986 H         1 UNK         0.3127 
    106 H106       31.0269    2.1595   -6.8055 H         1 UNK         0.0770 
    107 H107       29.6147    4.7794   -6.0698 H         1 UNK         0.0814 
    108 H108       31.0162    4.6717   -7.1208 H         1 UNK         0.0814 
    109 H109       31.1564    4.1945   -5.4376 H         1 UNK         0.0814 
    110 H110       27.5495    2.7797   -7.1336 H         1 UNK         0.2983 
    111 H111       27.6543    3.2977   -9.9973 H         1 UNK         0.0947 
    112 H112       25.1826    3.1704   -9.8254 H         1 UNK         0.0806 
    113 H113       25.8294    4.2034   -8.5612 H         1 UNK         0.0806 
    114 H114       25.2963    2.5680   -8.1795 H         1 UNK         0.0806 
    115 H115       27.8158    0.4153   -8.0784 H         1 UNK         0.3000 
    116 H116       26.9463   -1.3263  -10.3557 H         1 UNK         0.0850 
    117 H117       26.8294   -3.1033   -8.5863 H         1 UNK         0.0810 
    118 H118       25.7162   -1.7783   -8.2956 H         1 UNK         0.0810 
    119 H119       27.2047   -1.9027   -7.3558 H         1 UNK         0.0810 
    120 H120       29.4832   -0.9895   -7.8134 H         1 UNK         0.3040 
    121 H121       31.1551   -3.0120   -9.1035 H         1 UNK         0.0766 
    122 H122       31.4563   -1.3434   -6.5580 H         1 UNK         0.0812 
    123 H123       32.5710   -2.6141   -7.0477 H         1 UNK         0.0812 
    124 H124       30.9024   -3.0084   -6.6746 H         1 UNK         0.0812 
    125 H125       30.9077    0.3773   -9.4766 H         1 UNK         0.3205 
    126 H126       32.0903    1.9702  -10.4523 H         1 UNK         0.0754 
    127 H127       33.7149    1.4697  -12.2005 H         1 UNK         0.0769 
    128 H128       32.3993    0.3139  -12.3099 H         1 UNK         0.0769 
    129 H129       33.9444   -0.1667  -11.6088 H         1 UNK         0.0769 
    130 H130       32.8957    0.8829   -7.7292 H         1 UNK         0.2981 
    131 H131       35.6776    1.5944   -7.4278 H         1 UNK         0.0541 
    132 H132       33.8309    5.0621   -6.9522 H         1 UNK         0.3459 
    133 H133       33.1986    3.7606   -7.9304 H         1 UNK         0.3459 
    134 H134       35.2989    1.0923   -5.0042 H         1 UNK         0.0612 
    135 H135       34.8913   -0.2050   -6.0878 H         1 UNK         0.0612 
    136 H136       33.8072   -1.4141   -4.2292 H         1 UNK         0.0624 
    137 H137       33.8382   -0.1829   -2.9880 H         1 UNK         0.0624 
@<TRIPOS>BOND
     1    1    2 1    
     2    1   72 1    
     3    1   73 1    
     4    1   74 1    
     5    2    3 2    
     6    2    4 am   BACKBONE|DICT|INTERRES
     7    4    5 1    
     8    4   75 1    
     9    5    6 1    
    10    5   35 1    
    11    5   76 1    
    12    6    7 1    
    13    6   77 1    
    14    6   78 1    
    15    7    8 1    
    16    8    9 1    
    17    8   79 1    
    18    8   80 1    
    19    9   10 ar   
    20    9   14 ar   
    21   10   11 ar   
    22   10   81 1    
    23   11   12 ar   
    24   11   71 1    
    25   12   13 ar   
    26   12   82 1    
    27   13   14 ar   
    28   13   15 1    
    29   14   83 1    
    30   15   16 1    
    31   15   84 1    
    32   15   85 1    
    33   16   17 1    
    34   17   18 1    
    35   17   86 1    
    36   17   87 1    
    37   18   19 1    
    38   18   37 1    
    39   18   88 1    
    40   19   20 am   BACKBONE|DICT|INTERRES
    41   19   89 1    
    42   20   21 2    
    43   20   22 1    
    44   22   23 1    
    45   22   24 1    
    46   22   90 1    
    47   23   91 1    
    48   23   92 1    
    49   23   93 1    
    50   24   25 am   BACKBONE|DICT|INTERRES
    51   24   94 1    
    52   25   26 2    
    53   25   27 1    
    54   27   28 1    
    55   27   29 1    
    56   27   95 1    
    57   28   96 1    
    58   28   97 1    
    59   28   98 1    
    60   29   30 am   BACKBONE|DICT|INTERRES
    61   29   99 1    
    62   30   31 2    
    63   30   32 1    
    64   32   33 1    
    65   32   34 1    
    66   32  100 1    
    67   33  101 1    
    68   33  102 1    
    69   33  103 1    
    70   34   35 am   BACKBONE|DICT|INTERRES
    71   34  104 1    
    72   35   36 2    
    73   37   38 2    
    74   37   39 am   BACKBONE|DICT|INTERRES
    75   39   40 1    
    76   39  105 1    
    77   40   41 1    
    78   40   42 1    
    79   40  106 1    
    80   41  107 1    
    81   41  108 1    
    82   41  109 1    
    83   42   43 2    
    84   42   44 am   BACKBONE|DICT|INTERRES
    85   44   45 1    
    86   44  110 1    
    87   45   46 1    
    88   45   47 1    
    89   45  111 1    
    90   46  112 1    
    91   46  113 1    
    92   46  114 1    
    93   47   48 2    
    94   47   49 am   BACKBONE|DICT|INTERRES
    95   49   50 1    
    96   49  115 1    
    97   50   51 1    
    98   50   52 1    
    99   50  116 1    
   100   51  117 1    
   101   51  118 1    
   102   51  119 1    
   103   52   53 2    
   104   52   54 am   BACKBONE|DICT|INTERRES
   105   54   55 1    
   106   54  120 1    
   107   55   56 1    
   108   55   57 1    
   109   55  121 1    
   110   56  122 1    
   111   56  123 1    
   112   56  124 1    
   113   57   58 2    
   114   57   59 am   BACKBONE|DICT|INTERRES
   115   59   60 1    
   116   59  125 1    
   117   60   61 1    
   118   60   62 1    
   119   60  126 1    
   120   61  127 1    
   121   61  128 1    
   122   61  129 1    
   123   62   63 2    
   124   62   64 am   BACKBONE|DICT|INTERRES
   125   64   65 1    
   126   64  130 1    
   127   65   66 1    
   128   65   69 1    
   129   65  131 1    
   130   66   67 am   BACKBONE|DICT|INTERRES
   131   66   68 2    
   132   67  132 1    
   133   67  133 1    
   134   69   70 1    
   135   69  134 1    
   136   69  135 1    
   137   70   71 1    
   138   71  136 1    
   139   71  137 1    
@<TRIPOS>SUBSTRUCTURE
     1 UNK         1 GROUP             0       ****    0 ROOT    
