@<TRIPOS>MOLECULE
3R137
137   139    1
SMALL
USER_CHARGES


@<TRIPOS>ATOM
      1 CA         29.3808    2.9245   -2.7756 C.3       0 UNK        -0.2020 
      2 C          29.5567    1.4175   -2.6666 C.2       0 UNK         0.4855 
      3 O          30.4873    0.8699   -3.2529 O.2       0 UNK        -0.5197 
      4 N          28.6685    0.7470   -1.9266 N.am      1 UNK        -0.4892 
      5 CA         28.6081   -0.7034   -1.7595 C.3       1 UNK         0.0835 
      6 C6         29.6812   -1.2133   -0.7611 C.3       12 UNK        -0.0855 
      7 S7         29.7811   -3.0320   -0.6279 S.3       12 UNK        -0.2931 
      8 C8         31.0501   -3.4358   -1.8702 C.3       12 UNK         0.0378 
      9 C9         30.5131   -3.2964   -3.2868 C.ar      12 UNK        -0.0802 
     10 C10        30.9269   -2.2385   -4.1018 C.ar      12 UNK        -0.0944 
     11 C11        30.4263   -2.1068   -5.4002 C.ar      12 UNK        -0.0787 
     12 C12        29.5170   -3.0491   -5.8867 C.ar      12 UNK        -0.0862 
     13 C13        29.1032   -4.1162   -5.0857 C.ar      12 UNK        -0.0733 
     14 C14        29.6023   -4.2329   -3.7850 C.ar      12 UNK        -0.0832 
     15 C15        28.1357   -5.1561   -5.6271 C.3       12 UNK         0.0240 
     16 S16        26.4165   -4.5680   -5.5690 S.3       12 UNK        -0.2522 
     17 C17        26.1891   -3.8691   -7.2444 C.3       12 UNK        -0.0967 
     18 CA         25.4785   -2.4905   -7.2710 C.3       5 UNK         0.0660 
     19 N          24.2372   -2.4899   -6.4841 N.am      5 UNK        -0.4015 
     20 C          23.0346   -2.8160   -6.9802 C.2       4 UNK         0.4946 
     21 O          22.8242   -3.0130   -8.1785 O.2       4 UNK        -0.5353 
     22 CA         21.8596   -2.9969   -5.9974 C.3       4 UNK         0.0277 
     23 CB         21.5833   -4.4935   -5.7747 C.3       4 UNK        -0.1981 
     24 N          22.0576   -2.3580   -4.6963 N.am      4 UNK        -0.4209 
     25 C          22.0087   -1.0383   -4.4753 C.2       3 UNK         0.4942 
     26 O          21.7269   -0.2109   -5.3425 O.2       3 UNK        -0.5208 
     27 CA         22.3505   -0.5488   -3.0532 C.3       3 UNK         0.0250 
     28 CB         21.0612   -0.2692   -2.2636 C.3       3 UNK        -0.1990 
     29 N          23.2223   -1.4263   -2.2541 N.am      3 UNK        -0.4232 
     30 C          24.4251   -1.8809   -2.6308 C.2       2 UNK         0.4993 
     31 O          24.8696   -1.7612   -3.7739 O.2       2 UNK        -0.5286 
     32 CA         25.2703   -2.6094   -1.5755 C.3       2 UNK         0.0209 
     33 CB         25.1435   -4.1320   -1.7379 C.3       2 UNK        -0.1931 
     34 N          26.6766   -2.2240   -1.7137 N.am      2 UNK        -0.4546 
     35 C          27.1661   -1.0360   -1.3365 C.2       1 UNK         0.5154 
     36 O          26.5141   -0.2000   -0.7018 O.2       1 UNK        -0.5181 
     37 C          26.4232   -1.3115   -6.9590 C.2       5 UNK         0.5014 
     38 O          27.3385   -1.0702   -7.7487 O.2       5 UNK        -0.5248 
     39 N          26.1718   -0.5589   -5.8756 N.am      6 UNK        -0.4434 
     40 CA         26.9085    0.6343   -5.4335 C.3       6 UNK         0.0363 
     41 CB         26.1504    1.2809   -4.2622 C.3       6 UNK        -0.1936 
     42 C          27.1426    1.7000   -6.5168 C.2       6 UNK         0.5081 
     43 O          28.1702    2.3757   -6.4847 O.2       6 UNK        -0.5248 
     44 N          26.2019    1.8101   -7.4658 N.am      7 UNK        -0.4718 
     45 CA         26.2364    2.7164   -8.6171 C.3       7 UNK         0.0273 
     46 CB         24.9187    2.5790   -9.3971 C.3       7 UNK        -0.1935 
     47 C          27.4410    2.5216   -9.5586 C.2       7 UNK         0.5018 
     48 O          27.7729    3.4538  -10.2920 O.2       7 UNK        -0.5186 
     49 N          28.0845    1.3436   -9.5205 N.am      8 UNK        -0.4240 
     50 CA         29.3398    1.0738  -10.2277 C.3       8 UNK         0.0235 
     51 CB         29.6137   -0.4375  -10.2263 C.3       8 UNK        -0.2000 
     52 C          30.5377    1.8570   -9.6539 C.2       8 UNK         0.4941 
     53 O          31.4534    2.1787  -10.4128 O.2       8 UNK        -0.5273 
     54 N          30.4893    2.1779   -8.3501 N.am      9 UNK        -0.4262 
     55 CA         31.3990    3.0160   -7.5575 C.3       9 UNK         0.0264 
     56 CB         31.3062    4.4888   -8.0008 C.3       9 UNK        -0.1955 
     57 C          32.8644    2.5490   -7.4909 C.2       9 UNK         0.5031 
     58 O          33.3685    2.2912   -6.3968 O.2       9 UNK        -0.5390 
     59 N          33.5354    2.4606   -8.6442 N.am      10 UNK        -0.4204 
     60 CA         34.9569    2.1378   -8.8034 C.3       10 UNK         0.0237 
     61 CB         35.4518    2.7339  -10.1347 C.3       10 UNK        -0.1985 
     62 C          35.2297    0.6251   -8.6897 C.2       10 UNK         0.4970 
     63 O          35.8614    0.0400   -9.5717 O.2       10 UNK        -0.4914 
     64 N          34.7292    0.0196   -7.6100 N.am      11 UNK        -0.4285 
     65 CA         34.7917   -1.4232   -7.3351 C.3       11 UNK         0.1007 
     66 C          36.0736   -1.8716   -6.5765 C.2       11 UNK         0.5703 
     67 N          36.9538   -0.9683   -6.1602 N.am      11 UNK        -0.7361 
     68 O          36.2830   -3.0655   -6.3745 O.2       11 UNK        -0.4986 
     69 C69        33.5048   -1.9119   -6.6227 C.3       12 UNK        -0.0947 
     70 S70        32.0030   -1.5273   -7.5871 S.3       12 UNK        -0.2240 
     71 C71        30.8680   -0.9537   -6.2875 C.3       12 UNK         0.0194 
     72 H72        30.2745    3.4334   -2.4156 H         1 UNK         0.0906 
     73 H73        29.2242    3.2061   -3.8170 H         1 UNK         0.0906 
     74 H74        28.5297    3.2801   -2.1952 H         1 UNK         0.0906 
     75 H75        27.9035    1.2268   -1.4654 H         1 UNK         0.3140 
     76 H76        28.7737   -1.1548   -2.7391 H         1 UNK         0.1085 
     77 H77        29.4914   -0.8077    0.2344 H         1 UNK         0.0836 
     78 H78        30.6644   -0.8370   -1.0472 H         1 UNK         0.0836 
     79 H79        31.9296   -2.8078   -1.7184 H         1 UNK         0.0731 
     80 H80        31.3808   -4.4636   -1.7136 H         1 UNK         0.0731 
     81 H81        31.6294   -1.5090   -3.7224 H         1 UNK         0.1312 
     82 H82        29.1409   -2.9507   -6.8952 H         1 UNK         0.1406 
     83 H83        29.2845   -5.0541   -3.1565 H         1 UNK         0.1631 
     84 H84        28.2034   -6.0716   -5.0375 H         1 UNK         0.0717 
     85 H85        28.4112   -5.4375   -6.6444 H         1 UNK         0.0717 
     86 H86        27.1409   -3.8214   -7.7754 H         1 UNK         0.0934 
     87 H87        25.5883   -4.5852   -7.8071 H         1 UNK         0.0934 
     88 H88        25.2091   -2.3074   -8.3134 H         1 UNK         0.0739 
     89 H89        24.3429   -2.3626   -5.4809 H         1 UNK         0.3093 
     90 H90        20.9770   -2.5529   -6.4632 H         1 UNK         0.0818 
     91 H91        20.7081   -4.6473   -5.1432 H         1 UNK         0.0819 
     92 H92        21.3894   -5.0002   -6.7213 H         1 UNK         0.0819 
     93 H93        22.4311   -4.9949   -5.3056 H         1 UNK         0.0819 
     94 H94        22.3022   -2.9599   -3.9237 H         1 UNK         0.3041 
     95 H95        22.8847    0.3962   -3.1723 H         1 UNK         0.0784 
     96 H96        20.5025   -1.1853   -2.0671 H         1 UNK         0.0793 
     97 H97        21.2752    0.2071   -1.3066 H         1 UNK         0.0793 
     98 H98        20.4014    0.4027   -2.8148 H         1 UNK         0.0793 
     99 H99        22.9214   -1.5978   -1.3051 H         1 UNK         0.3024 
    100 H100       24.9245   -2.3289   -0.5779 H         1 UNK         0.1171 
    101 H101       24.1087   -4.4545   -1.6153 H         1 UNK         0.0786 
    102 H102       25.7377   -4.6605   -0.9922 H         1 UNK         0.0786 
    103 H103       25.4733   -4.4627   -2.7232 H         1 UNK         0.0786 
    104 H104       27.2642   -2.8462   -2.2502 H         1 UNK         0.2977 
    105 H105       25.4832   -0.9034   -5.2102 H         1 UNK         0.3127 
    106 H106       27.8867    0.2997   -5.0824 H         1 UNK         0.0770 
    107 H107       25.1388    1.5705   -4.5494 H         1 UNK         0.0814 
    108 H108       26.6577    2.1801   -3.9110 H         1 UNK         0.0814 
    109 H109       26.0706    0.6059   -3.4138 H         1 UNK         0.0814 
    110 H110       25.4011    1.1989   -7.3983 H         1 UNK         0.2983 
    111 H111       26.3017    3.7342   -8.2266 H         1 UNK         0.0947 
    112 H112       24.8938    3.2632  -10.2467 H         1 UNK         0.0806 
    113 H113       24.0583    2.8146   -8.7705 H         1 UNK         0.0806 
    114 H114       24.7852    1.5694   -9.7882 H         1 UNK         0.0806 
    115 H115       27.7428    0.6170   -8.8982 H         1 UNK         0.3000 
    116 H116       29.2173    1.3914  -11.2655 H         1 UNK         0.0850 
    117 H117       30.5687   -0.6662  -10.7014 H         1 UNK         0.0810 
    118 H118       28.8407   -0.9790  -10.7716 H         1 UNK         0.0810 
    119 H119       29.6460   -0.8398   -9.2144 H         1 UNK         0.0810 
    120 H120       29.6605    1.8925   -7.8389 H         1 UNK         0.3040 
    121 H121       31.0160    2.9639   -6.5367 H         1 UNK         0.0766 
    122 H122       31.9371    5.1252   -7.3788 H         1 UNK         0.0812 
    123 H123       30.2851    4.8606   -7.9134 H         1 UNK         0.0812 
    124 H124       31.6229    4.6267   -9.0351 H         1 UNK         0.0812 
    125 H125       32.9820    2.5546   -9.4950 H         1 UNK         0.3205 
    126 H126       35.5134    2.6213   -7.9977 H         1 UNK         0.0754 
    127 H127       36.5205    2.5616  -10.2701 H         1 UNK         0.0769 
    128 H128       35.2935    3.8121  -10.1690 H         1 UNK         0.0769 
    129 H129       34.9369    2.2925  -10.9891 H         1 UNK         0.0769 
    130 H130       34.2257    0.5897   -6.9379 H         1 UNK         0.2981 
    131 H131       34.8348   -1.9445   -8.2933 H         1 UNK         0.0541 
    132 H132       37.7835   -1.2731   -5.6760 H         1 UNK         0.3459 
    133 H133       36.7948    0.0125   -6.3245 H         1 UNK         0.3459 
    134 H134       33.4311   -1.4606   -5.6319 H         1 UNK         0.0612 
    135 H135       33.5299   -2.9921   -6.4684 H         1 UNK         0.0612 
    136 H136       31.3452   -0.1639   -5.7049 H         1 UNK         0.0624 
    137 H137       29.9911   -0.5020   -6.7533 H         1 UNK         0.0624 
@<TRIPOS>BOND
     1    1    2 1    
     2    1   72 1    
     3    1   73 1    
     4    1   74 1    
     5    2    3 2    
     6    2    4 am   BACKBONE|DICT|INTERRES
     7    4    5 1    
     8    4   75 1    
     9    5    6 1    
    10    5   35 1    
    11    5   76 1    
    12    6    7 1    
    13    6   77 1    
    14    6   78 1    
    15    7    8 1    
    16    8    9 1    
    17    8   79 1    
    18    8   80 1    
    19    9   10 ar   
    20    9   14 ar   
    21   10   11 ar   
    22   10   81 1    
    23   11   12 ar   
    24   11   71 1    
    25   12   13 ar   
    26   12   82 1    
    27   13   14 ar   
    28   13   15 1    
    29   14   83 1    
    30   15   16 1    
    31   15   84 1    
    32   15   85 1    
    33   16   17 1    
    34   17   18 1    
    35   17   86 1    
    36   17   87 1    
    37   18   19 1    
    38   18   37 1    
    39   18   88 1    
    40   19   20 am   BACKBONE|DICT|INTERRES
    41   19   89 1    
    42   20   21 2    
    43   20   22 1    
    44   22   23 1    
    45   22   24 1    
    46   22   90 1    
    47   23   91 1    
    48   23   92 1    
    49   23   93 1    
    50   24   25 am   BACKBONE|DICT|INTERRES
    51   24   94 1    
    52   25   26 2    
    53   25   27 1    
    54   27   28 1    
    55   27   29 1    
    56   27   95 1    
    57   28   96 1    
    58   28   97 1    
    59   28   98 1    
    60   29   30 am   BACKBONE|DICT|INTERRES
    61   29   99 1    
    62   30   31 2    
    63   30   32 1    
    64   32   33 1    
    65   32   34 1    
    66   32  100 1    
    67   33  101 1    
    68   33  102 1    
    69   33  103 1    
    70   34   35 am   BACKBONE|DICT|INTERRES
    71   34  104 1    
    72   35   36 2    
    73   37   38 2    
    74   37   39 am   BACKBONE|DICT|INTERRES
    75   39   40 1    
    76   39  105 1    
    77   40   41 1    
    78   40   42 1    
    79   40  106 1    
    80   41  107 1    
    81   41  108 1    
    82   41  109 1    
    83   42   43 2    
    84   42   44 am   BACKBONE|DICT|INTERRES
    85   44   45 1    
    86   44  110 1    
    87   45   46 1    
    88   45   47 1    
    89   45  111 1    
    90   46  112 1    
    91   46  113 1    
    92   46  114 1    
    93   47   48 2    
    94   47   49 am   BACKBONE|DICT|INTERRES
    95   49   50 1    
    96   49  115 1    
    97   50   51 1    
    98   50   52 1    
    99   50  116 1    
   100   51  117 1    
   101   51  118 1    
   102   51  119 1    
   103   52   53 2    
   104   52   54 am   BACKBONE|DICT|INTERRES
   105   54   55 1    
   106   54  120 1    
   107   55   56 1    
   108   55   57 1    
   109   55  121 1    
   110   56  122 1    
   111   56  123 1    
   112   56  124 1    
   113   57   58 2    
   114   57   59 am   BACKBONE|DICT|INTERRES
   115   59   60 1    
   116   59  125 1    
   117   60   61 1    
   118   60   62 1    
   119   60  126 1    
   120   61  127 1    
   121   61  128 1    
   122   61  129 1    
   123   62   63 2    
   124   62   64 am   BACKBONE|DICT|INTERRES
   125   64   65 1    
   126   64  130 1    
   127   65   66 1    
   128   65   69 1    
   129   65  131 1    
   130   66   67 am   BACKBONE|DICT|INTERRES
   131   66   68 2    
   132   67  132 1    
   133   67  133 1    
   134   69   70 1    
   135   69  134 1    
   136   69  135 1    
   137   70   71 1    
   138   71  136 1    
   139   71  137 1    
@<TRIPOS>SUBSTRUCTURE
     1 UNK         1 GROUP             0       ****    0 ROOT    
