@<TRIPOS>MOLECULE
3R137
137   139    1
SMALL
USER_CHARGES


@<TRIPOS>ATOM
      1 CA         29.1282   -5.6184    0.3014 C.3       0 UNK        -0.2020 
      2 C          27.9464   -4.7639    0.7343 C.2       0 UNK         0.4855 
      3 O          27.0639   -5.2506    1.4409 O.2       0 UNK        -0.5197 
      4 N          27.9242   -3.4916    0.3161 N.am      1 UNK        -0.4892 
      5 CA         26.8558   -2.5252    0.6045 C.3       1 UNK         0.0835 
      6 C6         27.3065   -1.0696    0.3045 C.3       12 UNK        -0.0855 
      7 S7         27.7855   -0.7821   -1.4392 S.3       12 UNK        -0.2931 
      8 C8         29.6047   -0.7569   -1.3281 C.3       12 UNK         0.0378 
      9 C9         30.2319   -1.0104   -2.6908 C.ar      12 UNK        -0.0802 
     10 C10        30.8976    0.0109   -3.3773 C.ar      12 UNK        -0.0944 
     11 C11        31.4400   -0.2246   -4.6453 C.ar      12 UNK        -0.0787 
     12 C12        31.3140   -1.4922   -5.2218 C.ar      12 UNK        -0.0862 
     13 C13        30.6622   -2.5224   -4.5410 C.ar      12 UNK        -0.0733 
     14 C14        30.1317   -2.2776   -3.2723 C.ar      12 UNK        -0.0832 
     15 C15        30.5165   -3.8970   -5.1793 C.3       12 UNK         0.0240 
     16 S16        29.4944   -3.8687   -6.6882 S.3       12 UNK        -0.2522 
     17 C17        27.9239   -3.1607   -6.0958 C.3       12 UNK        -0.0967 
     18 CA         27.3759   -2.0354   -7.0105 C.3       5 UNK         0.0660 
     19 N          25.9393   -1.8659   -6.7802 N.am      5 UNK        -0.4015 
     20 C          25.1050   -1.1282   -7.5236 C.2       4 UNK         0.4946 
     21 O          25.4396   -0.5252   -8.5418 O.2       4 UNK        -0.5353 
     22 CA         23.6629   -1.0040   -7.0002 C.3       4 UNK         0.0277 
     23 CB         22.8051   -2.1818   -7.4879 C.3       4 UNK        -0.1981 
     24 N          23.5963   -0.9189   -5.5364 N.am      4 UNK        -0.4209 
     25 C          24.1357    0.0620   -4.8015 C.2       3 UNK         0.4942 
     26 O          24.7210    1.0259   -5.2915 O.2       3 UNK        -0.5208 
     27 CA         24.0731   -0.0689   -3.2713 C.3       3 UNK         0.0250 
     28 CB         22.6967    0.3587   -2.7272 C.3       3 UNK        -0.1990 
     29 N          24.4834   -1.3847   -2.7583 N.am      3 UNK        -0.4232 
     30 C          23.8665   -2.5710   -2.8781 C.2       2 UNK         0.4993 
     31 O          22.8286   -2.7374   -3.5202 O.2       2 UNK        -0.5286 
     32 CA         24.5293   -3.7922   -2.2097 C.3       2 UNK         0.0209 
     33 CB         25.0396   -4.7757   -3.2769 C.3       2 UNK        -0.1931 
     34 N          25.6413   -3.4571   -1.3150 N.am      2 UNK        -0.4546 
     35 C          25.5320   -2.8654   -0.1161 C.2       1 UNK         0.5154 
     36 O          24.4562   -2.5724    0.4066 O.2       1 UNK        -0.5181 
     37 C          28.1486   -0.7011   -6.8627 C.2       5 UNK         0.5014 
     38 O          29.0522   -0.4221   -7.6576 O.2       5 UNK        -0.5248 
     39 N          27.7401    0.1204   -5.8816 N.am      6 UNK        -0.4434 
     40 CA         28.2630    1.4676   -5.6540 C.3       6 UNK         0.0363 
     41 CB         27.9126    1.9456   -4.2365 C.3       6 UNK        -0.1936 
     42 C          27.7692    2.4694   -6.7054 C.2       6 UNK         0.5081 
     43 O          28.5667    3.2773   -7.1775 O.2       6 UNK        -0.5248 
     44 N          26.4867    2.3814   -7.0869 N.am      7 UNK        -0.4718 
     45 CA         25.8743    3.1879   -8.1494 C.3       7 UNK         0.0273 
     46 CB         24.3583    2.9397   -8.1810 C.3       7 UNK        -0.1935 
     47 C          26.5002    2.9294   -9.5315 C.2       7 UNK         0.5018 
     48 O          26.6950    3.8754  -10.2952 O.2       7 UNK        -0.5186 
     49 N          26.8470    1.6639   -9.8054 N.am      8 UNK        -0.4240 
     50 CA         27.6235    1.2388  -10.9732 C.3       8 UNK         0.0235 
     51 CB         27.4991   -0.2867  -11.1243 C.3       8 UNK        -0.2000 
     52 C          29.1097    1.6440  -10.9080 C.2       8 UNK         0.4941 
     53 O          29.7797    1.5997  -11.9403 O.2       8 UNK        -0.5273 
     54 N          29.5986    2.0067   -9.7106 N.am      9 UNK        -0.4262 
     55 CA         30.9784    2.3724   -9.3699 C.3       9 UNK         0.0264 
     56 CB         31.3688    3.7110  -10.0303 C.3       9 UNK        -0.1955 
     57 C          31.9860    1.2436   -9.6562 C.2       9 UNK         0.5031 
     58 O          33.1178    1.5151  -10.0635 O.2       9 UNK        -0.5390 
     59 N          31.5645   -0.0097   -9.4284 N.am      10 UNK        -0.4204 
     60 CA         32.3203   -1.2183   -9.7796 C.3       10 UNK         0.0237 
     61 CB         31.4153   -2.4423   -9.5925 C.3       10 UNK        -0.1985 
     62 C          33.6416   -1.3958   -9.0082 C.2       10 UNK         0.4970 
     63 O          34.5278   -2.1025   -9.4895 O.2       10 UNK        -0.4914 
     64 N          33.7522   -0.7482   -7.8429 N.am      11 UNK        -0.4285 
     65 CA         34.9704   -0.6661   -7.0297 C.3       11 UNK         0.1007 
     66 C          36.0226    0.3614   -7.5455 C.2       11 UNK         0.5703 
     67 N          35.7329    1.1715   -8.5591 N.am      11 UNK        -0.7361 
     68 O          37.1346    0.4108   -7.0251 O.2       11 UNK        -0.4986 
     69 C69        34.6341   -0.4964   -5.5225 C.3       12 UNK        -0.0947 
     70 S70        33.8779    1.1027   -5.0512 S.3       12 UNK        -0.2240 
     71 C71        32.1042    0.9041   -5.4215 C.3       12 UNK         0.0194 
     72 H72        28.7819   -6.4640   -0.2923 H         1 UNK         0.0906 
     73 H73        29.6498   -6.0072    1.1758 H         1 UNK         0.0906 
     74 H74        29.8443   -5.0546   -0.2964 H         1 UNK         0.0906 
     75 H75        28.6806   -3.1418   -0.2520 H         1 UNK         0.3140 
     76 H76        26.6438   -2.5876    1.6746 H         1 UNK         0.1085 
     77 H77        28.1392   -0.8011    0.9566 H         1 UNK         0.0836 
     78 H78        26.5090   -0.3682    0.5583 H         1 UNK         0.0836 
     79 H79        29.9250    0.2040   -0.9222 H         1 UNK         0.0731 
     80 H80        29.9521   -1.5189   -0.6295 H         1 UNK         0.0731 
     81 H81        30.9764    0.9950   -2.9360 H         1 UNK         0.1312 
     82 H82        31.7060   -1.6803   -6.2107 H         1 UNK         0.1406 
     83 H83        29.6169   -3.0679   -2.7440 H         1 UNK         0.1631 
     84 H84        30.0843   -4.6104   -4.4761 H         1 UNK         0.0717 
     85 H85        31.5065   -4.2783   -5.4325 H         1 UNK         0.0717 
     86 H86        27.2181   -3.9927   -6.0690 H         1 UNK         0.0934 
     87 H87        28.0087   -2.8185   -5.0638 H         1 UNK         0.0934 
     88 H88        27.4877   -2.3538   -8.0495 H         1 UNK         0.0739 
     89 H89        25.5561   -2.3264   -5.9693 H         1 UNK         0.3093 
     90 H90        23.2414   -0.0825   -7.4059 H         1 UNK         0.0818 
     91 H91        22.8297   -2.2578   -8.5760 H         1 UNK         0.0819 
     92 H92        23.1543   -3.1335   -7.0852 H         1 UNK         0.0819 
     93 H93        21.7618   -2.0582   -7.1968 H         1 UNK         0.0819 
     94 H94        23.1348   -1.6747   -5.0340 H         1 UNK         0.3041 
     95 H95        24.8068    0.6342   -2.8730 H         1 UNK         0.0784 
     96 H96        22.6774    0.3322   -1.6376 H         1 UNK         0.0793 
     97 H97        22.4601    1.3792   -3.0310 H         1 UNK         0.0793 
     98 H98        21.8924   -0.2806   -3.0919 H         1 UNK         0.0793 
     99 H99        25.3535   -1.3813   -2.2422 H         1 UNK         0.3024 
    100 H100       23.7554   -4.2895   -1.6205 H         1 UNK         0.1171 
    101 H101       24.2363   -5.0773   -3.9508 H         1 UNK         0.0786 
    102 H102       25.8302   -4.3375   -3.8864 H         1 UNK         0.0786 
    103 H103       25.4323   -5.6851   -2.8214 H         1 UNK         0.0786 
    104 H104       26.5718   -3.6617   -1.6483 H         1 UNK         0.2977 
    105 H105       26.9637   -0.1604   -5.3027 H         1 UNK         0.3127 
    106 H106       29.3485    1.4222   -5.7348 H         1 UNK         0.0770 
    107 H107       26.8368    2.0233   -4.0821 H         1 UNK         0.0814 
    108 H108       28.3397    2.9305   -4.0438 H         1 UNK         0.0814 
    109 H109       28.3110    1.2705   -3.4816 H         1 UNK         0.0814 
    110 H110       25.8754    1.7389   -6.5877 H         1 UNK         0.2983 
    111 H111       26.0434    4.2384   -7.9029 H         1 UNK         0.0947 
    112 H112       24.1242    1.9102   -8.4508 H         1 UNK         0.0806 
    113 H113       23.8736    3.5861   -8.9137 H         1 UNK         0.0806 
    114 H114       23.9011    3.1449   -7.2127 H         1 UNK         0.0806 
    115 H115       26.5552    0.9321   -9.1615 H         1 UNK         0.3000 
    116 H116       27.1941    1.7102  -11.8596 H         1 UNK         0.0850 
    117 H117       26.4583   -0.5901  -11.2393 H         1 UNK         0.0810 
    118 H118       27.9056   -0.8107  -10.2582 H         1 UNK         0.0810 
    119 H119       28.0391   -0.6403  -12.0036 H         1 UNK         0.0810 
    120 H120       28.9530    2.0281   -8.9308 H         1 UNK         0.3040 
    121 H121       30.9943    2.5225   -8.2896 H         1 UNK         0.0766 
    122 H122       31.4289    3.6245  -11.1155 H         1 UNK         0.0812 
    123 H123       32.3424    4.0527   -9.6769 H         1 UNK         0.0812 
    124 H124       30.6467    4.4927   -9.7943 H         1 UNK         0.0812 
    125 H125       30.6354   -0.1450   -9.0388 H         1 UNK         0.3205 
    126 H126       32.5771   -1.1456  -10.8385 H         1 UNK         0.0754 
    127 H127       31.9282   -3.3618   -9.8782 H         1 UNK         0.0769 
    128 H128       30.5126   -2.3699  -10.1995 H         1 UNK         0.0769 
    129 H129       31.1127   -2.5447   -8.5525 H         1 UNK         0.0769 
    130 H130       32.9879   -0.1630   -7.5486 H         1 UNK         0.2981 
    131 H131       35.4688   -1.6336   -7.1147 H         1 UNK         0.0541 
    132 H132       36.4327    1.8218   -8.8786 H         1 UNK         0.3459 
    133 H133       34.8261    1.1509   -9.0122 H         1 UNK         0.3459 
    134 H134       35.5493   -0.5984   -4.9369 H         1 UNK         0.0612 
    135 H135       34.0011   -1.3155   -5.1845 H         1 UNK         0.0612 
    136 H136       31.9554    0.7666   -6.4913 H         1 UNK         0.0624 
    137 H137       31.6110    1.8465   -5.1797 H         1 UNK         0.0624 
@<TRIPOS>BOND
     1    1    2 1    
     2    1   72 1    
     3    1   73 1    
     4    1   74 1    
     5    2    3 2    
     6    2    4 am   BACKBONE|DICT|INTERRES
     7    4    5 1    
     8    4   75 1    
     9    5    6 1    
    10    5   35 1    
    11    5   76 1    
    12    6    7 1    
    13    6   77 1    
    14    6   78 1    
    15    7    8 1    
    16    8    9 1    
    17    8   79 1    
    18    8   80 1    
    19    9   10 ar   
    20    9   14 ar   
    21   10   11 ar   
    22   10   81 1    
    23   11   12 ar   
    24   11   71 1    
    25   12   13 ar   
    26   12   82 1    
    27   13   14 ar   
    28   13   15 1    
    29   14   83 1    
    30   15   16 1    
    31   15   84 1    
    32   15   85 1    
    33   16   17 1    
    34   17   18 1    
    35   17   86 1    
    36   17   87 1    
    37   18   19 1    
    38   18   37 1    
    39   18   88 1    
    40   19   20 am   BACKBONE|DICT|INTERRES
    41   19   89 1    
    42   20   21 2    
    43   20   22 1    
    44   22   23 1    
    45   22   24 1    
    46   22   90 1    
    47   23   91 1    
    48   23   92 1    
    49   23   93 1    
    50   24   25 am   BACKBONE|DICT|INTERRES
    51   24   94 1    
    52   25   26 2    
    53   25   27 1    
    54   27   28 1    
    55   27   29 1    
    56   27   95 1    
    57   28   96 1    
    58   28   97 1    
    59   28   98 1    
    60   29   30 am   BACKBONE|DICT|INTERRES
    61   29   99 1    
    62   30   31 2    
    63   30   32 1    
    64   32   33 1    
    65   32   34 1    
    66   32  100 1    
    67   33  101 1    
    68   33  102 1    
    69   33  103 1    
    70   34   35 am   BACKBONE|DICT|INTERRES
    71   34  104 1    
    72   35   36 2    
    73   37   38 2    
    74   37   39 am   BACKBONE|DICT|INTERRES
    75   39   40 1    
    76   39  105 1    
    77   40   41 1    
    78   40   42 1    
    79   40  106 1    
    80   41  107 1    
    81   41  108 1    
    82   41  109 1    
    83   42   43 2    
    84   42   44 am   BACKBONE|DICT|INTERRES
    85   44   45 1    
    86   44  110 1    
    87   45   46 1    
    88   45   47 1    
    89   45  111 1    
    90   46  112 1    
    91   46  113 1    
    92   46  114 1    
    93   47   48 2    
    94   47   49 am   BACKBONE|DICT|INTERRES
    95   49   50 1    
    96   49  115 1    
    97   50   51 1    
    98   50   52 1    
    99   50  116 1    
   100   51  117 1    
   101   51  118 1    
   102   51  119 1    
   103   52   53 2    
   104   52   54 am   BACKBONE|DICT|INTERRES
   105   54   55 1    
   106   54  120 1    
   107   55   56 1    
   108   55   57 1    
   109   55  121 1    
   110   56  122 1    
   111   56  123 1    
   112   56  124 1    
   113   57   58 2    
   114   57   59 am   BACKBONE|DICT|INTERRES
   115   59   60 1    
   116   59  125 1    
   117   60   61 1    
   118   60   62 1    
   119   60  126 1    
   120   61  127 1    
   121   61  128 1    
   122   61  129 1    
   123   62   63 2    
   124   62   64 am   BACKBONE|DICT|INTERRES
   125   64   65 1    
   126   64  130 1    
   127   65   66 1    
   128   65   69 1    
   129   65  131 1    
   130   66   67 am   BACKBONE|DICT|INTERRES
   131   66   68 2    
   132   67  132 1    
   133   67  133 1    
   134   69   70 1    
   135   69  134 1    
   136   69  135 1    
   137   70   71 1    
   138   71  136 1    
   139   71  137 1    
@<TRIPOS>SUBSTRUCTURE
     1 UNK         1 GROUP             0       ****    0 ROOT    
