@<TRIPOS>MOLECULE
3R137
137   139    1
SMALL
USER_CHARGES


@<TRIPOS>ATOM
      1 CA         24.5315   -6.4015   -3.7095 C.3       0 UNK        -0.2020 
      2 C          25.1426   -5.5392   -2.6148 C.2       0 UNK         0.4855 
      3 O          24.4683   -5.2272   -1.6333 O.2       0 UNK        -0.5197 
      4 N          26.4158   -5.1578   -2.7727 N.am      1 UNK        -0.4892 
      5 CA         27.1325   -4.2624   -1.8615 C.3       1 UNK         0.0835 
      6 C6         28.6614   -4.4593   -1.9915 C.3       12 UNK        -0.0855 
      7 S7         29.6242   -3.5928   -0.6974 S.3       12 UNK        -0.2931 
      8 C8         31.3077   -3.5562   -1.4030 C.3       12 UNK         0.0378 
      9 C9         31.3563   -2.8062   -2.7266 C.ar      12 UNK        -0.0802 
     10 C10        31.3967   -1.4095   -2.7554 C.ar      12 UNK        -0.0944 
     11 C11        31.3720   -0.7190   -3.9723 C.ar      12 UNK        -0.0787 
     12 C12        31.2875   -1.4477   -5.1668 C.ar      12 UNK        -0.0862 
     13 C13        31.2590   -2.8462   -5.1491 C.ar      12 UNK        -0.0733 
     14 C14        31.3222   -3.5170   -3.9274 C.ar      12 UNK        -0.0832 
     15 C15        31.1064   -3.6516   -6.4332 C.3       12 UNK         0.0240 
     16 S16        29.6854   -3.1463   -7.4600 S.3       12 UNK        -0.2522 
     17 C17        28.3230   -2.8930   -6.2614 C.3       12 UNK        -0.0967 
     18 CA         27.3298   -1.8137   -6.7538 C.3       5 UNK         0.0660 
     19 N          26.0436   -1.8985   -6.0560 N.am      5 UNK        -0.4015 
     20 C          24.8747   -1.5756   -6.6271 C.2       4 UNK         0.4946 
     21 O          24.7656   -1.1969   -7.7942 O.2       4 UNK        -0.5353 
     22 CA         23.6191   -1.6679   -5.7460 C.3       4 UNK         0.0277 
     23 CB         23.3859   -3.1058   -5.2526 C.3       4 UNK        -0.1981 
     24 N          23.6486   -0.7577   -4.6000 N.am      4 UNK        -0.4209 
     25 C          23.7483    0.5772   -4.6485 C.2       3 UNK         0.4942 
     26 O          23.8839    1.2186   -5.6884 O.2       3 UNK        -0.5208 
     27 CA         23.7330    1.3311   -3.3064 C.3       3 UNK         0.0250 
     28 CB         22.3271    1.3436   -2.6729 C.3       3 UNK        -0.1990 
     29 N          24.7658    0.8588   -2.3730 N.am      3 UNK        -0.4232 
     30 C          24.8529   -0.3357   -1.7727 C.2       2 UNK         0.4993 
     31 O          23.9678   -1.1947   -1.8069 O.2       2 UNK        -0.5286 
     32 CA         26.1707   -0.6174   -1.0332 C.3       2 UNK         0.0209 
     33 CB         26.0862   -0.1294    0.4220 C.3       2 UNK        -0.1931 
     34 N          26.5374   -2.0357   -1.0408 N.am      2 UNK        -0.4546 
     35 C          26.7161   -2.8002   -2.1283 C.2       1 UNK         0.5154 
     36 O          26.5999   -2.3973   -3.2927 O.2       1 UNK        -0.5181 
     37 C          27.9079   -0.3818   -6.7025 C.2       5 UNK         0.5014 
     38 O          28.7057   -0.0238   -7.5690 O.2       5 UNK        -0.5248 
     39 N          27.4630    0.4481   -5.7463 N.am      6 UNK        -0.4434 
     40 CA         27.8200    1.8696   -5.6764 C.3       6 UNK         0.0363 
     41 CB         27.3420    2.4683   -4.3467 C.3       6 UNK        -0.1936 
     42 C          27.2867    2.6835   -6.8712 C.2       6 UNK         0.5081 
     43 O          27.9652    3.6098   -7.3124 O.2       6 UNK        -0.5248 
     44 N          26.1129    2.3046   -7.4012 N.am      7 UNK        -0.4718 
     45 CA         25.5446    2.8583   -8.6344 C.3       7 UNK         0.0273 
     46 CB         24.0745    2.4297   -8.7628 C.3       7 UNK        -0.1935 
     47 C          26.3346    2.4580   -9.8937 C.2       7 UNK         0.5018 
     48 O          26.4266    3.2601  -10.8237 O.2       7 UNK        -0.5186 
     49 N          26.9003    1.2411   -9.8994 N.am      8 UNK        -0.4240 
     50 CA         27.8160    0.7615  -10.9410 C.3       8 UNK         0.0235 
     51 CB         27.9167   -0.7721  -10.8786 C.3       8 UNK        -0.2000 
     52 C          29.2103    1.4053  -10.8287 C.2       8 UNK         0.4941 
     53 O          29.8705    1.5966  -11.8501 O.2       8 UNK        -0.5273 
     54 N          29.6145    1.7306   -9.5921 N.am      9 UNK        -0.4262 
     55 CA         30.8510    2.4014   -9.1819 C.3       9 UNK         0.0264 
     56 CB         30.9558    3.8126   -9.7976 C.3       9 UNK        -0.1955 
     57 C          32.1162    1.5527   -9.4001 C.2       9 UNK         0.5031 
     58 O          33.2114    2.1061   -9.5126 O.2       9 UNK        -0.5390 
     59 N          31.9703    0.2205   -9.3972 N.am      10 UNK        -0.4204 
     60 CA         33.0620   -0.7527   -9.5270 C.3       10 UNK         0.0237 
     61 CB         32.5082   -2.0328  -10.1804 C.3       10 UNK        -0.1985 
     62 C          33.7590   -1.0286   -8.1769 C.2       10 UNK         0.4970 
     63 O          34.0892   -2.1763   -7.8767 O.2       10 UNK        -0.4914 
     64 N          33.9428    0.0250   -7.3746 N.am      11 UNK        -0.4285 
     65 CA         34.4044   -0.0268   -5.9794 C.3       11 UNK         0.1007 
     66 C          35.9343   -0.2468   -5.8016 C.2       11 UNK         0.5703 
     67 N          36.7397   -0.2198   -6.8571 N.am      11 UNK        -0.7361 
     68 O          36.3996   -0.4530   -4.6832 O.2       11 UNK        -0.4986 
     69 C69        33.9128    1.2063   -5.1696 C.3       12 UNK        -0.0947 
     70 S70        32.1416    1.5980   -5.4067 S.3       12 UNK        -0.2240 
     71 C71        31.3701    0.8089   -3.9536 C.3       12 UNK         0.0194 
     72 H72        23.5883   -5.9715   -4.0453 H         1 UNK         0.0906 
     73 H73        24.3315   -7.4028   -3.3292 H         1 UNK         0.0906 
     74 H74        25.1887   -6.4902   -4.5744 H         1 UNK         0.0906 
     75 H75        26.9128   -5.4198   -3.6117 H         1 UNK         0.3140 
     76 H76        26.8461   -4.5256   -0.8403 H         1 UNK         0.1085 
     77 H77        28.9761   -4.1351   -2.9818 H         1 UNK         0.0836 
     78 H78        28.9081   -5.5204   -1.9264 H         1 UNK         0.0836 
     79 H79        31.9809   -3.0801   -0.6886 H         1 UNK         0.0731 
     80 H80        31.6682   -4.5789   -1.5254 H         1 UNK         0.0731 
     81 H81        31.4209   -0.8598   -1.8242 H         1 UNK         0.1312 
     82 H82        31.2204   -0.9328   -6.1152 H         1 UNK         0.1406 
     83 H83        31.2890   -4.5980   -3.9056 H         1 UNK         0.1631 
     84 H84        30.9956   -4.7138   -6.2103 H         1 UNK         0.0717 
     85 H85        32.0177   -3.5601   -7.0231 H         1 UNK         0.0717 
     86 H86        27.8106   -3.8501   -6.1541 H         1 UNK         0.0934 
     87 H87        28.6892   -2.6412   -5.2661 H         1 UNK         0.0934 
     88 H88        27.1430   -2.0233   -7.8097 H         1 UNK         0.0739 
     89 H89        26.0764   -2.1681   -5.0736 H         1 UNK         0.3093 
     90 H90        22.7667   -1.3819   -6.3657 H         1 UNK         0.0818 
     91 H91        23.3934   -3.8136   -6.0827 H         1 UNK         0.0819 
     92 H92        24.1540   -3.4188   -4.5452 H         1 UNK         0.0819 
     93 H93        22.4202   -3.2008   -4.7558 H         1 UNK         0.0819 
     94 H94        23.5993   -1.1764   -3.6737 H         1 UNK         0.3041 
     95 H95        23.9857    2.3693   -3.5276 H         1 UNK         0.0784 
     96 H96        21.6050    1.8064   -3.3468 H         1 UNK         0.0793 
     97 H97        21.9605    0.3412   -2.4512 H         1 UNK         0.0793 
     98 H98        22.3168    1.9157   -1.7453 H         1 UNK         0.0793 
     99 H99        25.5355    1.5001   -2.2430 H         1 UNK         0.3024 
    100 H100       26.9745   -0.0792   -1.5405 H         1 UNK         0.1171 
    101 H101       25.8473    0.9341    0.4679 H         1 UNK         0.0786 
    102 H102       25.3134   -0.6604    0.9798 H         1 UNK         0.0786 
    103 H103       27.0333   -0.2683    0.9441 H         1 UNK         0.0786 
    104 H104       26.6577   -2.4640   -0.1348 H         1 UNK         0.2977 
    105 H105       26.8049    0.0961   -5.0680 H         1 UNK         0.3127 
    106 H106       28.9099    1.9351   -5.7034 H         1 UNK         0.0770 
    107 H107       26.2552    2.5004   -4.2916 H         1 UNK         0.0814 
    108 H108       27.6994    3.4931   -4.2368 H         1 UNK         0.0814 
    109 H109       27.7174    1.9024   -3.4942 H         1 UNK         0.0814 
    110 H110       25.5641    1.5923   -6.9315 H         1 UNK         0.2983 
    111 H111       25.5765    3.9477   -8.5616 H         1 UNK         0.0947 
    112 H112       23.9709    1.3440   -8.7858 H         1 UNK         0.0806 
    113 H113       23.6298    2.8218   -9.6785 H         1 UNK         0.0806 
    114 H114       23.4798    2.8036   -7.9292 H         1 UNK         0.0806 
    115 H115       26.7689    0.6477   -9.0927 H         1 UNK         0.3000 
    116 H116       27.4023    1.0347  -11.9143 H         1 UNK         0.0850 
    117 H117       28.5433   -1.1516  -11.6869 H         1 UNK         0.0810 
    118 H118       26.9371   -1.2391  -10.9821 H         1 UNK         0.0810 
    119 H119       28.3553   -1.1177   -9.9425 H         1 UNK         0.0810 
    120 H120       29.0336    1.4089   -8.8224 H         1 UNK         0.3040 
    121 H121       30.7649    2.5275   -8.1016 H         1 UNK         0.0766 
    122 H122       31.1167    3.7749  -10.8752 H         1 UNK         0.0812 
    123 H123       31.7887    4.3676   -9.3644 H         1 UNK         0.0812 
    124 H124       30.0510    4.3916   -9.6112 H         1 UNK         0.0812 
    125 H125       31.0447   -0.1523   -9.2346 H         1 UNK         0.3205 
    126 H126       33.8218   -0.3443  -10.1965 H         1 UNK         0.0754 
    127 H127       33.3037   -2.7557  -10.3661 H         1 UNK         0.0769 
    128 H128       32.0400   -1.8168  -11.1410 H         1 UNK         0.0769 
    129 H129       31.7657   -2.5196   -9.5480 H         1 UNK         0.0769 
    130 H130       33.6908    0.9397   -7.7254 H         1 UNK         0.2981 
    131 H131       33.9462   -0.9072   -5.5278 H         1 UNK         0.0541 
    132 H132       37.7283   -0.3678   -6.7294 H         1 UNK         0.3459 
    133 H133       36.3664   -0.0568   -7.7782 H         1 UNK         0.3459 
    134 H134       34.4785    2.0929   -5.4613 H         1 UNK         0.0612 
    135 H135       34.1048    1.0635   -4.1047 H         1 UNK         0.0612 
    136 H136       31.8685    1.1782   -3.0561 H         1 UNK         0.0624 
    137 H137       30.3349    1.1442   -3.8893 H         1 UNK         0.0624 
@<TRIPOS>BOND
     1    1    2 1    
     2    1   72 1    
     3    1   73 1    
     4    1   74 1    
     5    2    3 2    
     6    2    4 am   BACKBONE|DICT|INTERRES
     7    4    5 1    
     8    4   75 1    
     9    5    6 1    
    10    5   35 1    
    11    5   76 1    
    12    6    7 1    
    13    6   77 1    
    14    6   78 1    
    15    7    8 1    
    16    8    9 1    
    17    8   79 1    
    18    8   80 1    
    19    9   10 ar   
    20    9   14 ar   
    21   10   11 ar   
    22   10   81 1    
    23   11   12 ar   
    24   11   71 1    
    25   12   13 ar   
    26   12   82 1    
    27   13   14 ar   
    28   13   15 1    
    29   14   83 1    
    30   15   16 1    
    31   15   84 1    
    32   15   85 1    
    33   16   17 1    
    34   17   18 1    
    35   17   86 1    
    36   17   87 1    
    37   18   19 1    
    38   18   37 1    
    39   18   88 1    
    40   19   20 am   BACKBONE|DICT|INTERRES
    41   19   89 1    
    42   20   21 2    
    43   20   22 1    
    44   22   23 1    
    45   22   24 1    
    46   22   90 1    
    47   23   91 1    
    48   23   92 1    
    49   23   93 1    
    50   24   25 am   BACKBONE|DICT|INTERRES
    51   24   94 1    
    52   25   26 2    
    53   25   27 1    
    54   27   28 1    
    55   27   29 1    
    56   27   95 1    
    57   28   96 1    
    58   28   97 1    
    59   28   98 1    
    60   29   30 am   BACKBONE|DICT|INTERRES
    61   29   99 1    
    62   30   31 2    
    63   30   32 1    
    64   32   33 1    
    65   32   34 1    
    66   32  100 1    
    67   33  101 1    
    68   33  102 1    
    69   33  103 1    
    70   34   35 am   BACKBONE|DICT|INTERRES
    71   34  104 1    
    72   35   36 2    
    73   37   38 2    
    74   37   39 am   BACKBONE|DICT|INTERRES
    75   39   40 1    
    76   39  105 1    
    77   40   41 1    
    78   40   42 1    
    79   40  106 1    
    80   41  107 1    
    81   41  108 1    
    82   41  109 1    
    83   42   43 2    
    84   42   44 am   BACKBONE|DICT|INTERRES
    85   44   45 1    
    86   44  110 1    
    87   45   46 1    
    88   45   47 1    
    89   45  111 1    
    90   46  112 1    
    91   46  113 1    
    92   46  114 1    
    93   47   48 2    
    94   47   49 am   BACKBONE|DICT|INTERRES
    95   49   50 1    
    96   49  115 1    
    97   50   51 1    
    98   50   52 1    
    99   50  116 1    
   100   51  117 1    
   101   51  118 1    
   102   51  119 1    
   103   52   53 2    
   104   52   54 am   BACKBONE|DICT|INTERRES
   105   54   55 1    
   106   54  120 1    
   107   55   56 1    
   108   55   57 1    
   109   55  121 1    
   110   56  122 1    
   111   56  123 1    
   112   56  124 1    
   113   57   58 2    
   114   57   59 am   BACKBONE|DICT|INTERRES
   115   59   60 1    
   116   59  125 1    
   117   60   61 1    
   118   60   62 1    
   119   60  126 1    
   120   61  127 1    
   121   61  128 1    
   122   61  129 1    
   123   62   63 2    
   124   62   64 am   BACKBONE|DICT|INTERRES
   125   64   65 1    
   126   64  130 1    
   127   65   66 1    
   128   65   69 1    
   129   65  131 1    
   130   66   67 am   BACKBONE|DICT|INTERRES
   131   66   68 2    
   132   67  132 1    
   133   67  133 1    
   134   69   70 1    
   135   69  134 1    
   136   69  135 1    
   137   70   71 1    
   138   71  136 1    
   139   71  137 1    
@<TRIPOS>SUBSTRUCTURE
     1 UNK         1 GROUP             0       ****    0 ROOT    
