@<TRIPOS>MOLECULE
3R137
137   139    1
SMALL
USER_CHARGES


@<TRIPOS>ATOM
      1 CA         22.9863   -5.3180   -3.7464 C.3       0 UNK        -0.2020 
      2 C          23.8911   -4.7418   -2.6685 C.2       0 UNK         0.4855 
      3 O          23.4216   -3.9907   -1.8129 O.2       0 UNK        -0.5197 
      4 N          25.1891   -5.0734   -2.7101 N.am      1 UNK        -0.4892 
      5 CA         26.2226   -4.5788   -1.7928 C.3       1 UNK         0.0835 
      6 C6         27.5805   -5.2727   -2.0614 C.3       12 UNK        -0.0855 
      7 S7         28.7208   -5.1203   -0.6485 S.3       12 UNK        -0.2931 
      8 C8         30.3366   -5.3330   -1.4695 C.3       12 UNK         0.0378 
      9 C9         30.7571   -4.1435   -2.3302 C.ar      12 UNK        -0.0802 
     10 C10        31.3095   -4.3605   -3.5980 C.ar      12 UNK        -0.0944 
     11 C11        31.7721   -3.2925   -4.3762 C.ar      12 UNK        -0.0787 
     12 C12        31.6659   -1.9934   -3.8662 C.ar      12 UNK        -0.0862 
     13 C13        31.1071   -1.7554   -2.6078 C.ar      12 UNK        -0.0733 
     14 C14        30.6601   -2.8357   -1.8427 C.ar      12 UNK        -0.0832 
     15 C15        31.0244   -0.3373   -2.0522 C.3       12 UNK         0.0240 
     16 S16        30.3126    0.8616   -3.2289 S.3       12 UNK        -0.2522 
     17 C17        28.6034    0.2492   -3.3935 C.3       12 UNK        -0.0967 
     18 CA         28.0910    0.2492   -4.8573 C.3       5 UNK         0.0660 
     19 N          26.9886   -0.7113   -5.0247 N.am      5 UNK        -0.4015 
     20 C          26.2345   -0.9102   -6.1175 C.2       4 UNK         0.4946 
     21 O          26.3578   -0.2807   -7.1653 O.2       4 UNK        -0.5353 
     22 CA         25.1012   -1.9382   -6.0028 C.3       4 UNK         0.0277 
     23 CB         25.6363   -3.3775   -6.0859 C.3       4 UNK        -0.1981 
     24 N          24.3505   -1.7378   -4.7635 N.am      4 UNK        -0.4209 
     25 C          23.4306   -0.7756   -4.5935 C.2       3 UNK         0.4942 
     26 O          23.0284   -0.0457   -5.4993 O.2       3 UNK        -0.5208 
     27 CA         22.8805   -0.5686   -3.1717 C.3       3 UNK         0.0250 
     28 CB         21.5619   -1.3347   -2.9807 C.3       3 UNK        -0.1990 
     29 N          23.8369   -0.9549   -2.1303 N.am      3 UNK        -0.4232 
     30 C          24.9464   -0.2571   -1.8399 C.2       2 UNK         0.4993 
     31 O          25.2547    0.7966   -2.3985 O.2       2 UNK        -0.5286 
     32 CA         25.9011   -0.8599   -0.7907 C.3       2 UNK         0.0209 
     33 CB         25.5113   -0.3950    0.6209 C.3       2 UNK        -0.1931 
     34 N          25.9678   -2.3260   -0.8230 N.am      2 UNK        -0.4546 
     35 C          26.3340   -3.0448   -1.8931 C.2       1 UNK         0.5154 
     36 O          26.6800   -2.5394   -2.9614 O.2       1 UNK        -0.5181 
     37 C          27.7370    1.6840   -5.3086 C.2       5 UNK         0.5014 
     38 O          28.5785    2.3656   -5.8949 O.2       5 UNK        -0.5248 
     39 N          26.4873    2.1002   -5.0560 N.am      6 UNK        -0.4434 
     40 CA         25.9162    3.3800   -5.4807 C.3       6 UNK         0.0363 
     41 CB         24.5026    3.5085   -4.8904 C.3       6 UNK        -0.1936 
     42 C          25.8796    3.5965   -7.0086 C.2       6 UNK         0.5081 
     43 O          25.8826    4.7501   -7.4401 O.2       6 UNK        -0.5248 
     44 N          25.8383    2.5111   -7.7939 N.am      7 UNK        -0.4718 
     45 CA         25.8257    2.5373   -9.2592 C.3       7 UNK         0.0273 
     46 CB         24.6180    1.7294   -9.7614 C.3       7 UNK        -0.1935 
     47 C          27.1243    1.9745   -9.8585 C.2       7 UNK         0.5018 
     48 O          27.5769    2.4725  -10.8911 O.2       7 UNK        -0.5186 
     49 N          27.6955    0.9416   -9.2252 N.am      8 UNK        -0.4240 
     50 CA         28.8827    0.2098   -9.6641 C.3       8 UNK         0.0235 
     51 CB         28.9190   -1.1576   -8.9553 C.3       8 UNK        -0.2000 
     52 C          30.1814    1.0065   -9.4524 C.2       8 UNK         0.4941 
     53 O          31.0061    0.6401   -8.6142 O.2       8 UNK        -0.5273 
     54 N          30.3752    2.0552  -10.2638 N.am      9 UNK        -0.4262 
     55 CA         31.5987    2.8679  -10.3268 C.3       9 UNK         0.0264 
     56 CB         31.4016    4.0033  -11.3435 C.3       9 UNK        -0.1955 
     57 C          32.8705    2.0596  -10.6577 C.2       9 UNK         0.5031 
     58 O          33.9665    2.4665  -10.2689 O.2       9 UNK        -0.5390 
     59 N          32.6957    0.9043  -11.3171 N.am      10 UNK        -0.4204 
     60 CA         33.7215   -0.1054  -11.5899 C.3       10 UNK         0.0237 
     61 CB         33.1026   -1.2281  -12.4390 C.3       10 UNK        -0.1985 
     62 C          34.3942   -0.6931  -10.3325 C.2       10 UNK         0.4970 
     63 O          35.5074   -1.2075  -10.4509 O.2       10 UNK        -0.4914 
     64 N          33.7445   -0.5968   -9.1618 N.am      11 UNK        -0.4285 
     65 CA         34.3524   -0.9146   -7.8597 C.3       11 UNK         0.1007 
     66 C          35.4677    0.0824   -7.4187 C.2       11 UNK         0.5703 
     67 N          35.6023    1.2587   -8.0236 N.am      11 UNK        -0.7361 
     68 O          36.2349   -0.2248   -6.5093 O.2       11 UNK        -0.4986 
     69 C69        33.2923   -1.0614   -6.7376 C.3       12 UNK        -0.0947 
     70 S70        32.0599   -2.3751   -7.0479 S.3       12 UNK        -0.2240 
     71 C71        32.4350   -3.5811   -5.7267 C.3       12 UNK         0.0194 
     72 H72        23.5135   -6.0236   -4.3881 H         1 UNK         0.0906 
     73 H73        22.1451   -5.8389   -3.2901 H         1 UNK         0.0906 
     74 H74        22.5927   -4.5179   -4.3727 H         1 UNK         0.0906 
     75 H75        25.5173   -5.6816   -3.4467 H         1 UNK         0.3140 
     76 H76        25.8962   -4.8414   -0.7839 H         1 UNK         0.1085 
     77 H77        28.0490   -4.8869   -2.9697 H         1 UNK         0.0836 
     78 H78        27.4295   -6.3400   -2.2317 H         1 UNK         0.0836 
     79 H79        30.3104   -6.2504   -2.0599 H         1 UNK         0.0731 
     80 H80        31.0969   -5.4851   -0.7023 H         1 UNK         0.0731 
     81 H81        31.4059   -5.3713   -3.9708 H         1 UNK         0.1312 
     82 H82        32.0181   -1.1502   -4.4382 H         1 UNK         0.1406 
     83 H83        30.2488   -2.6626   -0.8575 H         1 UNK         0.1631 
     84 H84        32.0299   -0.0094   -1.7857 H         1 UNK         0.0717 
     85 H85        30.4378   -0.3124   -1.1324 H         1 UNK         0.0717 
     86 H86        28.5744   -0.7651   -2.9956 H         1 UNK         0.0934 
     87 H87        27.9551    0.8395   -2.7439 H         1 UNK         0.0934 
     88 H88        28.8936   -0.1066   -5.5069 H         1 UNK         0.0739 
     89 H89        26.8251   -1.3272   -4.2287 H         1 UNK         0.3093 
     90 H90        24.4270   -1.7870   -6.8490 H         1 UNK         0.0818 
     91 H91        26.3383   -3.6081   -5.2852 H         1 UNK         0.0819 
     92 H92        24.8252   -4.1038   -6.0409 H         1 UNK         0.0819 
     93 H93        26.1609   -3.5384   -7.0287 H         1 UNK         0.0819 
     94 H94        24.6688   -2.2499   -3.9523 H         1 UNK         0.3041 
     95 H95        22.6693    0.4970   -3.0563 H         1 UNK         0.0784 
     96 H96        20.8151   -1.0082   -3.7058 H         1 UNK         0.0793 
     97 H97        21.6914   -2.4089   -3.1116 H         1 UNK         0.0793 
     98 H98        21.1442   -1.1655   -1.9881 H         1 UNK         0.0793 
     99 H99        23.6752   -1.8422   -1.6656 H         1 UNK         0.3024 
    100 H100       26.9021   -0.4827   -1.0069 H         1 UNK         0.1171 
    101 H101       26.2346   -0.7315    1.3640 H         1 UNK         0.0786 
    102 H102       25.4759    0.6942    0.6767 H         1 UNK         0.0786 
    103 H103       24.5291   -0.7685    0.9135 H         1 UNK         0.0786 
    104 H104       25.6645   -2.8116    0.0093 H         1 UNK         0.2977 
    105 H105       25.8837    1.4920   -4.5160 H         1 UNK         0.3127 
    106 H106       26.5388    4.1705   -5.0569 H         1 UNK         0.0770 
    107 H107       23.8388    2.7276   -5.2644 H         1 UNK         0.0814 
    108 H108       24.0558    4.4692   -5.1499 H         1 UNK         0.0814 
    109 H109       24.5181    3.4418   -3.8021 H         1 UNK         0.0814 
    110 H110       25.8742    1.5928   -7.3604 H         1 UNK         0.2983 
    111 H111       25.7207    3.5615   -9.6238 H         1 UNK         0.0947 
    112 H112       24.5778    1.7216  -10.8516 H         1 UNK         0.0806 
    113 H113       23.6810    2.1582   -9.4056 H         1 UNK         0.0806 
    114 H114       24.6584    0.6916   -9.4270 H         1 UNK         0.0806 
    115 H115       27.2341    0.5692   -8.3957 H         1 UNK         0.3000 
    116 H116       28.7880    0.0195  -10.7353 H         1 UNK         0.0850 
    117 H117       29.0118   -1.0489   -7.8739 H         1 UNK         0.0810 
    118 H118       28.0168   -1.7352   -9.1566 H         1 UNK         0.0810 
    119 H119       29.7684   -1.7520   -9.2947 H         1 UNK         0.0810 
    120 H120       29.6040    2.3251  -10.8670 H         1 UNK         0.3040 
    121 H121       31.7463    3.3105   -9.3396 H         1 UNK         0.0766 
    122 H122       30.5587    4.6387  -11.0705 H         1 UNK         0.0812 
    123 H123       31.2215    3.6191  -12.3483 H         1 UNK         0.0812 
    124 H124       32.2847    4.6421  -11.3915 H         1 UNK         0.0812 
    125 H125       31.7546    0.6716  -11.5971 H         1 UNK         0.3205 
    126 H126       34.5052    0.3784  -12.1763 H         1 UNK         0.0754 
    127 H127       33.8481   -1.9838  -12.6911 H         1 UNK         0.0769 
    128 H128       32.7051   -0.8440  -13.3787 H         1 UNK         0.0769 
    129 H129       32.2928   -1.7335  -11.9108 H         1 UNK         0.0769 
    130 H130       32.8240   -0.1713   -9.1234 H         1 UNK         0.2981 
    131 H131       34.8452   -1.8831   -7.9639 H         1 UNK         0.0541 
    132 H132       34.9855    1.5383   -8.7785 H         1 UNK         0.3459 
    133 H133       36.3338    1.8820   -7.7220 H         1 UNK         0.3459 
    134 H134       33.7906   -1.2681   -5.7891 H         1 UNK         0.0612 
    135 H135       32.7553   -0.1212   -6.5997 H         1 UNK         0.0612 
    136 H136       33.5148   -3.6497   -5.5895 H         1 UNK         0.0624 
    137 H137       32.1136   -4.5592   -6.0876 H         1 UNK         0.0624 
@<TRIPOS>BOND
     1    1    2 1    
     2    1   72 1    
     3    1   73 1    
     4    1   74 1    
     5    2    3 2    
     6    2    4 am   BACKBONE|DICT|INTERRES
     7    4    5 1    
     8    4   75 1    
     9    5    6 1    
    10    5   35 1    
    11    5   76 1    
    12    6    7 1    
    13    6   77 1    
    14    6   78 1    
    15    7    8 1    
    16    8    9 1    
    17    8   79 1    
    18    8   80 1    
    19    9   10 ar   
    20    9   14 ar   
    21   10   11 ar   
    22   10   81 1    
    23   11   12 ar   
    24   11   71 1    
    25   12   13 ar   
    26   12   82 1    
    27   13   14 ar   
    28   13   15 1    
    29   14   83 1    
    30   15   16 1    
    31   15   84 1    
    32   15   85 1    
    33   16   17 1    
    34   17   18 1    
    35   17   86 1    
    36   17   87 1    
    37   18   19 1    
    38   18   37 1    
    39   18   88 1    
    40   19   20 am   BACKBONE|DICT|INTERRES
    41   19   89 1    
    42   20   21 2    
    43   20   22 1    
    44   22   23 1    
    45   22   24 1    
    46   22   90 1    
    47   23   91 1    
    48   23   92 1    
    49   23   93 1    
    50   24   25 am   BACKBONE|DICT|INTERRES
    51   24   94 1    
    52   25   26 2    
    53   25   27 1    
    54   27   28 1    
    55   27   29 1    
    56   27   95 1    
    57   28   96 1    
    58   28   97 1    
    59   28   98 1    
    60   29   30 am   BACKBONE|DICT|INTERRES
    61   29   99 1    
    62   30   31 2    
    63   30   32 1    
    64   32   33 1    
    65   32   34 1    
    66   32  100 1    
    67   33  101 1    
    68   33  102 1    
    69   33  103 1    
    70   34   35 am   BACKBONE|DICT|INTERRES
    71   34  104 1    
    72   35   36 2    
    73   37   38 2    
    74   37   39 am   BACKBONE|DICT|INTERRES
    75   39   40 1    
    76   39  105 1    
    77   40   41 1    
    78   40   42 1    
    79   40  106 1    
    80   41  107 1    
    81   41  108 1    
    82   41  109 1    
    83   42   43 2    
    84   42   44 am   BACKBONE|DICT|INTERRES
    85   44   45 1    
    86   44  110 1    
    87   45   46 1    
    88   45   47 1    
    89   45  111 1    
    90   46  112 1    
    91   46  113 1    
    92   46  114 1    
    93   47   48 2    
    94   47   49 am   BACKBONE|DICT|INTERRES
    95   49   50 1    
    96   49  115 1    
    97   50   51 1    
    98   50   52 1    
    99   50  116 1    
   100   51  117 1    
   101   51  118 1    
   102   51  119 1    
   103   52   53 2    
   104   52   54 am   BACKBONE|DICT|INTERRES
   105   54   55 1    
   106   54  120 1    
   107   55   56 1    
   108   55   57 1    
   109   55  121 1    
   110   56  122 1    
   111   56  123 1    
   112   56  124 1    
   113   57   58 2    
   114   57   59 am   BACKBONE|DICT|INTERRES
   115   59   60 1    
   116   59  125 1    
   117   60   61 1    
   118   60   62 1    
   119   60  126 1    
   120   61  127 1    
   121   61  128 1    
   122   61  129 1    
   123   62   63 2    
   124   62   64 am   BACKBONE|DICT|INTERRES
   125   64   65 1    
   126   64  130 1    
   127   65   66 1    
   128   65   69 1    
   129   65  131 1    
   130   66   67 am   BACKBONE|DICT|INTERRES
   131   66   68 2    
   132   67  132 1    
   133   67  133 1    
   134   69   70 1    
   135   69  134 1    
   136   69  135 1    
   137   70   71 1    
   138   71  136 1    
   139   71  137 1    
@<TRIPOS>SUBSTRUCTURE
     1 UNK         1 GROUP             0       ****    0 ROOT    
