@<TRIPOS>MOLECULE
3R137
137   139    1
SMALL
USER_CHARGES


@<TRIPOS>ATOM
      1 CA         23.1994   -6.0312   -2.6856 C.3       0 UNK        -0.2020 
      2 C          24.2973   -5.0063   -2.4458 C.2       0 UNK         0.4855 
      3 O          24.4941   -4.1354   -3.2920 O.2       0 UNK        -0.5197 
      4 N          24.9833   -5.1110   -1.2955 N.am      1 UNK        -0.4892 
      5 CA         26.1120   -4.2980   -0.8056 C.3       1 UNK         0.0835 
      6 C6         27.5076   -4.9510   -1.0188 C.3       12 UNK        -0.0855 
      7 S7         27.8889   -5.5377   -2.7045 S.3       12 UNK        -0.2931 
      8 C8         29.7037   -5.3819   -2.7420 C.3       12 UNK         0.0378 
      9 C9         30.1632   -4.0126   -3.2274 C.ar      12 UNK        -0.0802 
     10 C10        30.3783   -3.7950   -4.5910 C.ar      12 UNK        -0.0944 
     11 C11        30.8486   -2.5619   -5.0511 C.ar      12 UNK        -0.0787 
     12 C12        31.1136   -1.5419   -4.1323 C.ar      12 UNK        -0.0862 
     13 C13        30.8826   -1.7354   -2.7653 C.ar      12 UNK        -0.0733 
     14 C14        30.4118   -2.9766   -2.3213 C.ar      12 UNK        -0.0832 
     15 C15        31.1633   -0.6256   -1.7528 C.3       12 UNK         0.0240 
     16 S16        30.4376    0.9937   -2.1917 S.3       12 UNK        -0.2522 
     17 C17        28.6818    0.5738   -2.4555 C.3       12 UNK        -0.0967 
     18 CA         28.3301    0.5658   -3.9666 C.3       5 UNK         0.0660 
     19 N          27.4561   -0.5507   -4.3378 N.am      5 UNK        -0.4015 
     20 C          27.2653   -0.9519   -5.6035 C.2       4 UNK         0.4946 
     21 O          27.8143   -0.4345   -6.5740 O.2       4 UNK        -0.5353 
     22 CA         26.2648   -2.0896   -5.8453 C.3       4 UNK         0.0277 
     23 CB         26.9220   -3.4483   -5.5807 C.3       4 UNK        -0.1981 
     24 N          25.0608   -1.9488   -5.0290 N.am      4 UNK        -0.4209 
     25 C          24.1813   -0.9453   -5.1559 C.2       3 UNK         0.4942 
     26 O          24.2596   -0.0661   -6.0152 O.2       3 UNK        -0.5208 
     27 CA         23.0576   -0.8824   -4.1110 C.3       3 UNK         0.0250 
     28 CB         21.9450   -1.8938   -4.4311 C.3       3 UNK        -0.1990 
     29 N          23.5568   -1.1002   -2.7508 N.am      3 UNK        -0.4232 
     30 C          24.3867   -0.2647   -2.1100 C.2       2 UNK         0.4993 
     31 O          24.8110    0.7830   -2.5929 O.2       2 UNK        -0.5286 
     32 CA         24.8450   -0.6696   -0.7026 C.3       2 UNK         0.0209 
     33 CB         23.8386   -0.1854    0.3534 C.3       2 UNK        -0.1931 
     34 N          25.0601   -2.1100   -0.5530 N.am      2 UNK        -0.4546 
     35 C          26.0367   -2.7966   -1.1635 C.2       1 UNK         0.5154 
     36 O          26.8204   -2.2927   -1.9706 O.2       1 UNK        -0.5181 
     37 C          27.8072    1.9318   -4.4598 C.2       5 UNK         0.5014 
     38 O          28.6119    2.7644   -4.8793 O.2       5 UNK        -0.5248 
     39 N          26.4808    2.1350   -4.4340 N.am      6 UNK        -0.4434 
     40 CA         25.8115    3.3170   -4.9845 C.3       6 UNK         0.0363 
     41 CB         24.3339    3.3280   -4.5618 C.3       6 UNK        -0.1936 
     42 C          25.9391    3.4168   -6.5141 C.2       6 UNK         0.5081 
     43 O          26.1453    4.5169   -7.0279 O.2       6 UNK        -0.5248 
     44 N          25.8310    2.2767   -7.2124 N.am      7 UNK        -0.4718 
     45 CA         26.0794    2.1709   -8.6538 C.3       7 UNK         0.0273 
     46 CB         25.5536    0.8216   -9.1693 C.3       7 UNK        -0.1935 
     47 C          27.5684    2.3464   -9.0025 C.2       7 UNK         0.5018 
     48 O          27.8875    3.0275   -9.9785 O.2       7 UNK        -0.5186 
     49 N          28.4385    1.7386   -8.1845 N.am      8 UNK        -0.4240 
     50 CA         29.8999    1.7038   -8.2422 C.3       8 UNK         0.0235 
     51 CB         30.5228    3.1083   -8.1105 C.3       8 UNK        -0.2000 
     52 C          30.4231    0.9361   -9.4626 C.2       8 UNK         0.4941 
     53 O          30.9416   -0.1685   -9.2985 O.2       8 UNK        -0.5273 
     54 N          30.2860    1.5295  -10.6571 N.am      9 UNK        -0.4262 
     55 CA         30.7687    1.0344  -11.9509 C.3       9 UNK         0.0264 
     56 CB         29.8814   -0.1340  -12.4386 C.3       9 UNK        -0.1955 
     57 C          32.2741    0.7064  -11.8918 C.2       9 UNK         0.5031 
     58 O          33.0823    1.6260  -11.7470 O.2       9 UNK        -0.5390 
     59 N          32.6207   -0.5870  -11.9429 N.am      10 UNK        -0.4204 
     60 CA         33.9813   -1.1099  -11.7907 C.3       10 UNK         0.0237 
     61 CB         33.9719   -2.6231  -12.0626 C.3       10 UNK        -0.1985 
     62 C          34.6253   -0.8146  -10.4215 C.2       10 UNK         0.4970 
     63 O          35.8541   -0.7734  -10.3452 O.2       10 UNK        -0.4914 
     64 N          33.8091   -0.6041   -9.3789 N.am      11 UNK        -0.4285 
     65 CA         34.2632   -0.1915   -8.0410 C.3       11 UNK         0.1007 
     66 C          34.6107    1.3235   -7.9374 C.2       11 UNK         0.5703 
     67 N          34.3584    2.1461   -8.9513 N.am      11 UNK        -0.7361 
     68 O          35.1317    1.7619   -6.9148 O.2       11 UNK        -0.4986 
     69 C69        33.2746   -0.6141   -6.9189 C.3       12 UNK        -0.0947 
     70 S70        32.8232   -2.3832   -6.9872 S.3       12 UNK        -0.2240 
     71 C71        31.0576   -2.3362   -6.5414 C.3       12 UNK         0.0194 
     72 H72        22.2398   -5.5298   -2.8085 H         1 UNK         0.0906 
     73 H73        23.4082   -6.5938   -3.5951 H         1 UNK         0.0906 
     74 H74        23.1103   -6.7390   -1.8618 H         1 UNK         0.0906 
     75 H75        24.7204   -5.8593   -0.6692 H         1 UNK         0.3140 
     76 H76        25.9806   -4.3023    0.2783 H         1 UNK         0.1085 
     77 H77        27.5905   -5.8205   -0.3650 H         1 UNK         0.0836 
     78 H78        28.2907   -4.2706   -0.6827 H         1 UNK         0.0836 
     79 H79        30.1004   -6.1529   -3.4043 H         1 UNK         0.0731 
     80 H80        30.1179   -5.5977   -1.7559 H         1 UNK         0.0731 
     81 H81        30.1818   -4.5918   -5.2953 H         1 UNK         0.1312 
     82 H82        31.4881   -0.5907   -4.4838 H         1 UNK         0.1406 
     83 H83        30.2502   -3.1411   -1.2654 H         1 UNK         0.1631 
     84 H84        32.2431   -0.5085   -1.6541 H         1 UNK         0.0717 
     85 H85        30.7943   -0.9055   -0.7648 H         1 UNK         0.0717 
     86 H86        28.5039   -0.4032   -2.0075 H         1 UNK         0.0934 
     87 H87        28.0524    1.2656   -1.8920 H         1 UNK         0.0934 
     88 H88        29.2494    0.3963   -4.5292 H         1 UNK         0.0739 
     89 H89        27.0207   -1.0709   -3.5816 H         1 UNK         0.3093 
     90 H90        25.9622   -2.0548   -6.8940 H         1 UNK         0.0818 
     91 H91        27.2761   -3.5120   -4.5526 H         1 UNK         0.0819 
     92 H92        26.2284   -4.2721   -5.7489 H         1 UNK         0.0819 
     93 H93        27.7823   -3.6012   -6.2332 H         1 UNK         0.0819 
     94 H94        24.9093   -2.6524   -4.3061 H         1 UNK         0.3041 
     95 H95        22.6259    0.1201   -4.1511 H         1 UNK         0.0784 
     96 H96        21.5480   -1.7294   -5.4338 H         1 UNK         0.0793 
     97 H97        22.3045   -2.9225   -4.3885 H         1 UNK         0.0793 
     98 H98        21.1119   -1.8004   -3.7344 H         1 UNK         0.0793 
     99 H99        23.3092   -1.9711   -2.3039 H         1 UNK         0.3024 
    100 H100       25.7989   -0.1689   -0.5195 H         1 UNK         0.1171 
    101 H101       24.1981   -0.3811    1.3638 H         1 UNK         0.0786 
    102 H102       23.6770    0.8907    0.2724 H         1 UNK         0.0786 
    103 H103       22.8678   -0.6698    0.2413 H         1 UNK         0.0786 
    104 H104       24.4386   -2.6018    0.0734 H         1 UNK         0.2977 
    105 H105       25.8825    1.4461   -3.9821 H         1 UNK         0.3127 
    106 H106       26.2918    4.1992   -4.5558 H         1 UNK         0.0770 
    107 H107       23.8044    2.4452   -4.9215 H         1 UNK         0.0814 
    108 H108       23.8196    4.2034   -4.9604 H         1 UNK         0.0814 
    109 H109       24.2327    3.3591   -3.4769 H         1 UNK         0.0814 
    110 H110       25.5958    1.4214   -6.7191 H         1 UNK         0.2983 
    111 H111       25.5250    2.9674   -9.1551 H         1 UNK         0.0947 
    112 H112       25.7084    0.7275  -10.2450 H         1 UNK         0.0806 
    113 H113       24.4845    0.7167   -8.9836 H         1 UNK         0.0806 
    114 H114       26.0576   -0.0193   -8.6914 H         1 UNK         0.0806 
    115 H115       28.0475    1.1163   -7.4777 H         1 UNK         0.3000 
    116 H116       30.2055    1.1357   -7.3623 H         1 UNK         0.0850 
    117 H117       31.6119    3.0499   -8.1042 H         1 UNK         0.0810 
    118 H118       30.2190    3.5823   -7.1768 H         1 UNK         0.0810 
    119 H119       30.2376    3.7720   -8.9266 H         1 UNK         0.0810 
    120 H120       29.7820    2.4095  -10.6734 H         1 UNK         0.3040 
    121 H121       30.6605    1.8543  -12.6624 H         1 UNK         0.0766 
    122 H122       28.8473    0.1905  -12.5562 H         1 UNK         0.0812 
    123 H123       29.8787   -0.9744  -11.7434 H         1 UNK         0.0812 
    124 H124       30.2101   -0.5021  -13.4115 H         1 UNK         0.0812 
    125 H125       31.8798   -1.2688  -12.0191 H         1 UNK         0.3205 
    126 H126       34.6028   -0.6293  -12.5491 H         1 UNK         0.0754 
    127 H127       34.9779   -3.0392  -11.9904 H         1 UNK         0.0769 
    128 H128       33.6033   -2.8456  -13.0643 H         1 UNK         0.0769 
    129 H129       33.3464   -3.1574  -11.3460 H         1 UNK         0.0769 
    130 H130       32.8012   -0.6307   -9.5083 H         1 UNK         0.2981 
    131 H131       35.1987   -0.7173   -7.8411 H         1 UNK         0.0541 
    132 H132       33.9486    1.8089   -9.8137 H         1 UNK         0.3459 
    133 H133       34.6024    3.1192   -8.8619 H         1 UNK         0.3459 
    134 H134       32.3730   -0.0037   -6.9714 H         1 UNK         0.0612 
    135 H135       33.7106   -0.4239   -5.9367 H         1 UNK         0.0612 
    136 H136       30.5417   -3.1081   -7.1141 H         1 UNK         0.0624 
    137 H137       30.6004   -1.3933   -6.8427 H         1 UNK         0.0624 
@<TRIPOS>BOND
     1    1    2 1    
     2    1   72 1    
     3    1   73 1    
     4    1   74 1    
     5    2    3 2    
     6    2    4 am   BACKBONE|DICT|INTERRES
     7    4    5 1    
     8    4   75 1    
     9    5    6 1    
    10    5   35 1    
    11    5   76 1    
    12    6    7 1    
    13    6   77 1    
    14    6   78 1    
    15    7    8 1    
    16    8    9 1    
    17    8   79 1    
    18    8   80 1    
    19    9   10 ar   
    20    9   14 ar   
    21   10   11 ar   
    22   10   81 1    
    23   11   12 ar   
    24   11   71 1    
    25   12   13 ar   
    26   12   82 1    
    27   13   14 ar   
    28   13   15 1    
    29   14   83 1    
    30   15   16 1    
    31   15   84 1    
    32   15   85 1    
    33   16   17 1    
    34   17   18 1    
    35   17   86 1    
    36   17   87 1    
    37   18   19 1    
    38   18   37 1    
    39   18   88 1    
    40   19   20 am   BACKBONE|DICT|INTERRES
    41   19   89 1    
    42   20   21 2    
    43   20   22 1    
    44   22   23 1    
    45   22   24 1    
    46   22   90 1    
    47   23   91 1    
    48   23   92 1    
    49   23   93 1    
    50   24   25 am   BACKBONE|DICT|INTERRES
    51   24   94 1    
    52   25   26 2    
    53   25   27 1    
    54   27   28 1    
    55   27   29 1    
    56   27   95 1    
    57   28   96 1    
    58   28   97 1    
    59   28   98 1    
    60   29   30 am   BACKBONE|DICT|INTERRES
    61   29   99 1    
    62   30   31 2    
    63   30   32 1    
    64   32   33 1    
    65   32   34 1    
    66   32  100 1    
    67   33  101 1    
    68   33  102 1    
    69   33  103 1    
    70   34   35 am   BACKBONE|DICT|INTERRES
    71   34  104 1    
    72   35   36 2    
    73   37   38 2    
    74   37   39 am   BACKBONE|DICT|INTERRES
    75   39   40 1    
    76   39  105 1    
    77   40   41 1    
    78   40   42 1    
    79   40  106 1    
    80   41  107 1    
    81   41  108 1    
    82   41  109 1    
    83   42   43 2    
    84   42   44 am   BACKBONE|DICT|INTERRES
    85   44   45 1    
    86   44  110 1    
    87   45   46 1    
    88   45   47 1    
    89   45  111 1    
    90   46  112 1    
    91   46  113 1    
    92   46  114 1    
    93   47   48 2    
    94   47   49 am   BACKBONE|DICT|INTERRES
    95   49   50 1    
    96   49  115 1    
    97   50   51 1    
    98   50   52 1    
    99   50  116 1    
   100   51  117 1    
   101   51  118 1    
   102   51  119 1    
   103   52   53 2    
   104   52   54 am   BACKBONE|DICT|INTERRES
   105   54   55 1    
   106   54  120 1    
   107   55   56 1    
   108   55   57 1    
   109   55  121 1    
   110   56  122 1    
   111   56  123 1    
   112   56  124 1    
   113   57   58 2    
   114   57   59 am   BACKBONE|DICT|INTERRES
   115   59   60 1    
   116   59  125 1    
   117   60   61 1    
   118   60   62 1    
   119   60  126 1    
   120   61  127 1    
   121   61  128 1    
   122   61  129 1    
   123   62   63 2    
   124   62   64 am   BACKBONE|DICT|INTERRES
   125   64   65 1    
   126   64  130 1    
   127   65   66 1    
   128   65   69 1    
   129   65  131 1    
   130   66   67 am   BACKBONE|DICT|INTERRES
   131   66   68 2    
   132   67  132 1    
   133   67  133 1    
   134   69   70 1    
   135   69  134 1    
   136   69  135 1    
   137   70   71 1    
   138   71  136 1    
   139   71  137 1    
@<TRIPOS>SUBSTRUCTURE
     1 UNK         1 GROUP             0       ****    0 ROOT    
