@<TRIPOS>MOLECULE
3R137
137   139    1
SMALL
USER_CHARGES


@<TRIPOS>ATOM
      1 CA         28.2065   -5.5374    1.2105 C.3       0 UNK        -0.2020 
      2 C          27.7019   -4.3941    0.3426 C.2       0 UNK         0.4855 
      3 O          27.4362   -4.6080   -0.8400 O.2       0 UNK        -0.5197 
      4 N          27.5909   -3.1914    0.9274 N.am      1 UNK        -0.4892 
      5 CA         27.0901   -1.9385    0.3360 C.3       1 UNK         0.0835 
      6 C6         27.8699   -1.4808   -0.9305 C.3       12 UNK        -0.0855 
      7 S7         29.6053   -1.0420   -0.5779 S.3       12 UNK        -0.2931 
      8 C8         30.5239   -2.4729   -1.2317 C.3       12 UNK         0.0378 
      9 C9         30.5201   -2.5360   -2.7535 C.ar      12 UNK        -0.0802 
     10 C10        31.3376   -1.6770   -3.4935 C.ar      12 UNK        -0.0944 
     11 C11        31.3855   -1.7685   -4.8877 C.ar      12 UNK        -0.0787 
     12 C12        30.6123   -2.7304   -5.5435 C.ar      12 UNK        -0.0862 
     13 C13        29.7889   -3.5938   -4.8151 C.ar      12 UNK        -0.0733 
     14 C14        29.7414   -3.4865   -3.4213 C.ar      12 UNK        -0.0832 
     15 C15        28.9823   -4.6727   -5.5216 C.3       12 UNK         0.0240 
     16 S16        27.3503   -4.0706   -6.0518 S.3       12 UNK        -0.2522 
     17 C17        27.6989   -3.4081   -7.7199 C.3       12 UNK        -0.0967 
     18 CA         27.1982   -1.9605   -7.9418 C.3       5 UNK         0.0660 
     19 N          25.7909   -1.7936   -7.5661 N.am      5 UNK        -0.4015 
     20 C          25.0616   -0.6831   -7.7371 C.2       4 UNK         0.4946 
     21 O          25.4831    0.3245   -8.3056 O.2       4 UNK        -0.5353 
     22 CA         23.6445   -0.6639   -7.1402 C.3       4 UNK         0.0277 
     23 CB         22.6054   -0.9421   -8.2379 C.3       4 UNK        -0.1981 
     24 N          23.4238   -1.5836   -6.0155 N.am      4 UNK        -0.4209 
     25 C          24.1023   -1.5845   -4.8584 C.2       3 UNK         0.4942 
     26 O          25.0945   -0.8842   -4.6386 O.2       3 UNK        -0.5208 
     27 CA         23.6063   -2.5715   -3.7874 C.3       3 UNK         0.0250 
     28 CB         24.3632   -3.9047   -3.8913 C.3       3 UNK        -0.1990 
     29 N          23.7762   -2.0421   -2.4354 N.am      3 UNK        -0.4232 
     30 C          23.1519   -0.9738   -1.9249 C.2       2 UNK         0.4993 
     31 O          22.2607   -0.3620   -2.5160 O.2       2 UNK        -0.5286 
     32 CA         23.5939   -0.4797   -0.5318 C.3       2 UNK         0.0209 
     33 CB         22.6148   -0.9504    0.5630 C.3       2 UNK        -0.1931 
     34 N          24.9943   -0.7781   -0.1764 N.am      2 UNK        -0.4546 
     35 C          25.5657   -1.9667    0.0742 C.2       1 UNK         0.5154 
     36 O          24.9387   -3.0280    0.0716 O.2       1 UNK        -0.5181 
     37 C          28.1359   -0.9117   -7.3075 C.2       5 UNK         0.5014 
     38 O          29.1069   -0.5165   -7.9546 O.2       5 UNK        -0.5248 
     39 N          27.8005   -0.4100   -6.1100 N.am      6 UNK        -0.4434 
     40 CA         28.5252    0.6776   -5.4475 C.3       6 UNK         0.0363 
     41 CB         28.0256    0.8105   -4.0039 C.3       6 UNK        -0.1936 
     42 C          28.4558    2.0270   -6.1902 C.2       6 UNK         0.5081 
     43 O          29.2911    2.8909   -5.9251 O.2       6 UNK        -0.5248 
     44 N          27.4942    2.1822   -7.1108 N.am      7 UNK        -0.4718 
     45 CA         27.3954    3.3122   -8.0332 C.3       7 UNK         0.0273 
     46 CB         25.9649    3.8754   -7.9969 C.3       7 UNK        -0.1935 
     47 C          27.7739    2.8923   -9.4623 C.2       7 UNK         0.5018 
     48 O          28.5048    3.6264  -10.1267 O.2       7 UNK        -0.5186 
     49 N          27.2600    1.7400   -9.9194 N.am      8 UNK        -0.4240 
     50 CA         27.4034    1.2541  -11.2943 C.3       8 UNK         0.0235 
     51 CB         26.3568    0.1624  -11.5722 C.3       8 UNK        -0.2000 
     52 C          28.8179    0.7598  -11.6368 C.2       8 UNK         0.4941 
     53 O          29.3268    1.1068  -12.7036 O.2       8 UNK        -0.5273 
     54 N          29.4272   -0.0339  -10.7444 N.am      9 UNK        -0.4262 
     55 CA         30.8140   -0.4935  -10.8748 C.3       9 UNK         0.0264 
     56 CB         30.9738   -1.8954  -10.2604 C.3       9 UNK        -0.1955 
     57 C          31.7843    0.5016  -10.2225 C.2       9 UNK         0.5031 
     58 O          32.9127    0.6359  -10.6965 O.2       9 UNK        -0.5390 
     59 N          31.3314    1.1768   -9.1542 N.am      10 UNK        -0.4204 
     60 CA         31.9666    2.2798   -8.4146 C.3       10 UNK         0.0237 
     61 CB         32.2247    3.4897   -9.3334 C.3       10 UNK        -0.1985 
     62 C          33.2339    1.9146   -7.6185 C.2       10 UNK         0.4970 
     63 O          33.4676    2.5255   -6.5749 O.2       10 UNK        -0.4914 
     64 N          34.0023    0.9269   -8.0924 N.am      11 UNK        -0.4285 
     65 CA         35.2468    0.4141   -7.4981 C.3       11 UNK         0.1007 
     66 C          36.4064    1.4591   -7.5173 C.2       11 UNK         0.5703 
     67 N          37.4805    1.2374   -6.7701 N.am      11 UNK        -0.7361 
     68 O          36.3736    2.4497   -8.2464 O.2       11 UNK        -0.4986 
     69 C69        35.0193   -0.2488   -6.1049 C.3       12 UNK        -0.0947 
     70 S70        33.8383   -1.6408   -6.1442 S.3       12 UNK        -0.2240 
     71 C71        32.2753   -0.8296   -5.6839 C.3       12 UNK         0.0194 
     72 H72        29.1167   -5.9581    0.7836 H         1 UNK         0.0906 
     73 H73        28.4274   -5.2141    2.2276 H         1 UNK         0.0906 
     74 H74        27.4572   -6.3271    1.2609 H         1 UNK         0.0906 
     75 H75        27.8216   -3.1190    1.9087 H         1 UNK         0.3140 
     76 H76        27.2380   -1.1803    1.1072 H         1 UNK         0.1085 
     77 H77        27.8165   -2.2247   -1.7255 H         1 UNK         0.0836 
     78 H78        27.4165   -0.5813   -1.3479 H         1 UNK         0.0836 
     79 H79        30.1253   -3.3928   -0.8049 H         1 UNK         0.0731 
     80 H80        31.5558   -2.4079   -0.8838 H         1 UNK         0.0731 
     81 H81        31.9438   -0.9431   -2.9801 H         1 UNK         0.1312 
     82 H82        30.6609   -2.8082   -6.6206 H         1 UNK         0.1406 
     83 H83        29.1109   -4.1585   -2.8541 H         1 UNK         0.1631 
     84 H84        28.8318   -5.5173   -4.8474 H         1 UNK         0.0717 
     85 H85        29.5358   -5.0700   -6.3737 H         1 UNK         0.0717 
     86 H86        28.7625   -3.4869   -7.9517 H         1 UNK         0.0934 
     87 H87        27.2053   -4.0682   -8.4350 H         1 UNK         0.0934 
     88 H88        27.2443   -1.7784   -9.0162 H         1 UNK         0.0739 
     89 H89        25.3778   -2.5652   -7.0631 H         1 UNK         0.3093 
     90 H90        23.4787    0.3474   -6.7630 H         1 UNK         0.0818 
     91 H91        21.5888   -0.8110   -7.8666 H         1 UNK         0.0819 
     92 H92        22.7305   -0.2560   -9.0773 H         1 UNK         0.0819 
     93 H93        22.6934   -1.9559   -8.6306 H         1 UNK         0.0819 
     94 H94        22.6395   -2.2137   -6.1079 H         1 UNK         0.3041 
     95 H95        22.5413   -2.7564   -3.9429 H         1 UNK         0.0784 
     96 H96        24.2687   -4.3380   -4.8879 H         1 UNK         0.0793 
     97 H97        25.4279   -3.7777   -3.6886 H         1 UNK         0.0793 
     98 H98        23.9759   -4.6369   -3.1824 H         1 UNK         0.0793 
     99 H99        24.4503   -2.5102   -1.8418 H         1 UNK         0.3024 
    100 H100       23.5312    0.6094   -0.5727 H         1 UNK         0.1171 
    101 H101       22.8915   -0.5552    1.5403 H         1 UNK         0.0786 
    102 H102       21.6018   -0.6063    0.3499 H         1 UNK         0.0786 
    103 H103       22.5741   -2.0372    0.6383 H         1 UNK         0.0786 
    104 H104       25.5967    0.0341   -0.1658 H         1 UNK         0.2977 
    105 H105       26.9652   -0.7516   -5.6445 H         1 UNK         0.3127 
    106 H106       29.5785    0.3959   -5.4104 H         1 UNK         0.0770 
    107 H107       26.9638    1.0559   -3.9620 H         1 UNK         0.0814 
    108 H108       28.1823   -0.1218   -3.4637 H         1 UNK         0.0814 
    109 H109       28.5682    1.5908   -3.4688 H         1 UNK         0.0814 
    110 H110       26.8469    1.4178   -7.2699 H         1 UNK         0.2983 
    111 H111       28.0784    4.1108   -7.7347 H         1 UNK         0.0947 
    112 H112       25.7089    4.2356   -7.0005 H         1 UNK         0.0806 
    113 H113       25.2241    3.1268   -8.2813 H         1 UNK         0.0806 
    114 H114       25.8593    4.7171   -8.6828 H         1 UNK         0.0806 
    115 H115       26.6265    1.2152   -9.3173 H         1 UNK         0.3000 
    116 H116       27.1857    2.0925  -11.9601 H         1 UNK         0.0850 
    117 H117       26.4146   -0.1784  -12.6069 H         1 UNK         0.0810 
    118 H118       25.3448    0.5343  -11.4101 H         1 UNK         0.0810 
    119 H119       26.4960   -0.7095  -10.9345 H         1 UNK         0.0810 
    120 H120       28.9717   -0.2360   -9.8606 H         1 UNK         0.3040 
    121 H121       31.0735   -0.5672  -11.9333 H         1 UNK         0.0766 
    122 H122       30.8606   -1.8903   -9.1768 H         1 UNK         0.0812 
    123 H123       31.9660   -2.2954  -10.4733 H         1 UNK         0.0812 
    124 H124       30.2475   -2.5960  -10.6722 H         1 UNK         0.0812 
    125 H125       30.4321    0.8814   -8.7893 H         1 UNK         0.3205 
    126 H126       31.2273    2.5900   -7.6764 H         1 UNK         0.0754 
    127 H127       32.5872    4.3433   -8.7590 H         1 UNK         0.0769 
    128 H128       31.3119    3.8040   -9.8397 H         1 UNK         0.0769 
    129 H129       32.9739    3.2712  -10.0949 H         1 UNK         0.0769 
    130 H130       33.7644    0.5648   -9.0109 H         1 UNK         0.2981 
    131 H131       35.5776   -0.3690   -8.1807 H         1 UNK         0.0541 
    132 H132       38.2390    1.9007   -6.7973 H         1 UNK         0.3459 
    133 H133       37.5488    0.4221   -6.1820 H         1 UNK         0.3459 
    134 H134       34.7084    0.4881   -5.3633 H         1 UNK         0.0612 
    135 H135       35.9528   -0.6675   -5.7277 H         1 UNK         0.0612 
    136 H136       31.7573   -0.5112   -6.5897 H         1 UNK         0.0624 
    137 H137       32.4695    0.0748   -5.1059 H         1 UNK         0.0624 
@<TRIPOS>BOND
     1    1    2 1    
     2    1   72 1    
     3    1   73 1    
     4    1   74 1    
     5    2    3 2    
     6    2    4 am   BACKBONE|DICT|INTERRES
     7    4    5 1    
     8    4   75 1    
     9    5    6 1    
    10    5   35 1    
    11    5   76 1    
    12    6    7 1    
    13    6   77 1    
    14    6   78 1    
    15    7    8 1    
    16    8    9 1    
    17    8   79 1    
    18    8   80 1    
    19    9   10 ar   
    20    9   14 ar   
    21   10   11 ar   
    22   10   81 1    
    23   11   12 ar   
    24   11   71 1    
    25   12   13 ar   
    26   12   82 1    
    27   13   14 ar   
    28   13   15 1    
    29   14   83 1    
    30   15   16 1    
    31   15   84 1    
    32   15   85 1    
    33   16   17 1    
    34   17   18 1    
    35   17   86 1    
    36   17   87 1    
    37   18   19 1    
    38   18   37 1    
    39   18   88 1    
    40   19   20 am   BACKBONE|DICT|INTERRES
    41   19   89 1    
    42   20   21 2    
    43   20   22 1    
    44   22   23 1    
    45   22   24 1    
    46   22   90 1    
    47   23   91 1    
    48   23   92 1    
    49   23   93 1    
    50   24   25 am   BACKBONE|DICT|INTERRES
    51   24   94 1    
    52   25   26 2    
    53   25   27 1    
    54   27   28 1    
    55   27   29 1    
    56   27   95 1    
    57   28   96 1    
    58   28   97 1    
    59   28   98 1    
    60   29   30 am   BACKBONE|DICT|INTERRES
    61   29   99 1    
    62   30   31 2    
    63   30   32 1    
    64   32   33 1    
    65   32   34 1    
    66   32  100 1    
    67   33  101 1    
    68   33  102 1    
    69   33  103 1    
    70   34   35 am   BACKBONE|DICT|INTERRES
    71   34  104 1    
    72   35   36 2    
    73   37   38 2    
    74   37   39 am   BACKBONE|DICT|INTERRES
    75   39   40 1    
    76   39  105 1    
    77   40   41 1    
    78   40   42 1    
    79   40  106 1    
    80   41  107 1    
    81   41  108 1    
    82   41  109 1    
    83   42   43 2    
    84   42   44 am   BACKBONE|DICT|INTERRES
    85   44   45 1    
    86   44  110 1    
    87   45   46 1    
    88   45   47 1    
    89   45  111 1    
    90   46  112 1    
    91   46  113 1    
    92   46  114 1    
    93   47   48 2    
    94   47   49 am   BACKBONE|DICT|INTERRES
    95   49   50 1    
    96   49  115 1    
    97   50   51 1    
    98   50   52 1    
    99   50  116 1    
   100   51  117 1    
   101   51  118 1    
   102   51  119 1    
   103   52   53 2    
   104   52   54 am   BACKBONE|DICT|INTERRES
   105   54   55 1    
   106   54  120 1    
   107   55   56 1    
   108   55   57 1    
   109   55  121 1    
   110   56  122 1    
   111   56  123 1    
   112   56  124 1    
   113   57   58 2    
   114   57   59 am   BACKBONE|DICT|INTERRES
   115   59   60 1    
   116   59  125 1    
   117   60   61 1    
   118   60   62 1    
   119   60  126 1    
   120   61  127 1    
   121   61  128 1    
   122   61  129 1    
   123   62   63 2    
   124   62   64 am   BACKBONE|DICT|INTERRES
   125   64   65 1    
   126   64  130 1    
   127   65   66 1    
   128   65   69 1    
   129   65  131 1    
   130   66   67 am   BACKBONE|DICT|INTERRES
   131   66   68 2    
   132   67  132 1    
   133   67  133 1    
   134   69   70 1    
   135   69  134 1    
   136   69  135 1    
   137   70   71 1    
   138   71  136 1    
   139   71  137 1    
@<TRIPOS>SUBSTRUCTURE
     1 UNK         1 GROUP             0       ****    0 ROOT    
