@<TRIPOS>MOLECULE
3R137
137   139    1
SMALL
USER_CHARGES


@<TRIPOS>ATOM
      1 CA         30.7031   -5.0461   -6.0364 C.3       0 UNK        -0.2020 
      2 C          29.4791   -5.6014   -5.3240 C.2       0 UNK         0.4855 
      3 O          28.9453   -6.6306   -5.7371 O.2       0 UNK        -0.5197 
      4 N          29.0387   -4.9350   -4.2490 N.am      1 UNK        -0.4892 
      5 CA         27.8972   -5.3431   -3.4181 C.3       1 UNK         0.0835 
      6 C6         27.8965   -4.5934   -2.0605 C.3       12 UNK        -0.0855 
      7 S7         28.9864   -5.3559   -0.8095 S.3       12 UNK        -0.2931 
      8 C8         30.6772   -5.0021   -1.4072 C.3       12 UNK         0.0378 
      9 C9         31.0027   -3.5258   -1.6316 C.ar      12 UNK        -0.0802 
     10 C10        31.9184   -3.1786   -2.6293 C.ar      12 UNK        -0.0944 
     11 C11        32.2811   -1.8446   -2.8370 C.ar      12 UNK        -0.0787 
     12 C12        31.7124   -0.8443   -2.0435 C.ar      12 UNK        -0.0862 
     13 C13        30.7945   -1.1752   -1.0416 C.ar      12 UNK        -0.0733 
     14 C14        30.4520   -2.5150   -0.8348 C.ar      12 UNK        -0.0832 
     15 C15        30.1867   -0.0982   -0.1565 C.3       12 UNK         0.0240 
     16 S16        28.6064    0.5103   -0.8246 S.3       12 UNK        -0.2522 
     17 C17        29.1609    1.8140   -1.9752 C.3       12 UNK        -0.0967 
     18 CA         28.5719    1.6634   -3.4026 C.3       5 UNK         0.0660 
     19 N          27.1038    1.6889   -3.3868 N.am      5 UNK        -0.4015 
     20 C          26.2974    1.1902   -4.3314 C.2       4 UNK         0.4946 
     21 O          26.6931    0.5959   -5.3392 O.2       4 UNK        -0.5353 
     22 CA         24.8035    1.4717   -4.1640 C.3       4 UNK         0.0277 
     23 CB         24.3990    2.7325   -4.9484 C.3       4 UNK        -0.1981 
     24 N          24.0583    0.3209   -4.6580 N.am      4 UNK        -0.4209 
     25 C          22.8853   -0.1026   -4.1725 C.2       3 UNK         0.4942 
     26 O          22.2527    0.4971   -3.3016 O.2       3 UNK        -0.5208 
     27 CA         22.3043   -1.4139   -4.7398 C.3       3 UNK         0.0250 
     28 CB         21.1682   -1.1077   -5.7303 C.3       3 UNK        -0.1990 
     29 N          23.2791   -2.2954   -5.3936 N.am      3 UNK        -0.4232 
     30 C          24.3336   -2.8712   -4.7987 C.2       2 UNK         0.4993 
     31 O          24.6153   -2.7083   -3.6090 O.2       2 UNK        -0.5286 
     32 CA         25.2187   -3.7544   -5.7013 C.3       2 UNK         0.0209 
     33 CB         25.5853   -3.0374   -7.0127 C.3       2 UNK        -0.1931 
     34 N          26.4534   -4.1574   -5.0233 N.am      2 UNK        -0.4546 
     35 C          26.5439   -5.1599   -4.1389 C.2       1 UNK         0.5154 
     36 O          25.6139   -5.9265   -3.8793 O.2       1 UNK        -0.5181 
     37 C          29.1005    2.7606   -4.3549 C.2       5 UNK         0.5014 
     38 O          29.7970    3.6797   -3.9199 O.2       5 UNK        -0.5248 
     39 N          28.7094    2.6742   -5.6282 N.am      6 UNK        -0.4434 
     40 CA         28.9698    3.6579   -6.6726 C.3       6 UNK         0.0363 
     41 CB         27.8923    4.7631   -6.6236 C.3       6 UNK        -0.1936 
     42 C          29.0527    2.9300   -8.0202 C.2       6 UNK         0.5081 
     43 O          29.4726    1.7707   -8.0560 O.2       6 UNK        -0.5248 
     44 N          28.6477    3.6004   -9.1072 N.am      7 UNK        -0.4718 
     45 CA         28.6879    3.1054  -10.4899 C.3       7 UNK         0.0273 
     46 CB         28.1773    4.2048  -11.4347 C.3       7 UNK        -0.1935 
     47 C          27.9208    1.7920  -10.7324 C.2       7 UNK         0.5018 
     48 O          28.3040    1.0366  -11.6247 O.2       7 UNK        -0.5186 
     49 N          26.8923    1.5215   -9.9147 N.am      8 UNK        -0.4240 
     50 CA         26.1428    0.2610   -9.8930 C.3       8 UNK         0.0235 
     51 CB         24.9567    0.3895   -8.9208 C.3       8 UNK        -0.2000 
     52 C          27.0141   -0.9503   -9.5130 C.2       8 UNK         0.4941 
     53 O          26.8510   -2.0214  -10.0972 O.2       8 UNK        -0.5273 
     54 N          27.9230   -0.7502   -8.5497 N.am      9 UNK        -0.4262 
     55 CA         28.8829   -1.7487   -8.0742 C.3       9 UNK         0.0264 
     56 CB         29.0780   -1.5416   -6.5616 C.3       9 UNK        -0.1955 
     57 C          30.2379   -1.6588   -8.8008 C.2       9 UNK         0.5031 
     58 O          31.0624   -2.5570   -8.6328 O.2       9 UNK        -0.5390 
     59 N          30.4508   -0.5712   -9.5582 N.am      10 UNK        -0.4204 
     60 CA         31.7210   -0.1003  -10.1250 C.3       10 UNK         0.0237 
     61 CB         32.3039   -1.1055  -11.1413 C.3       10 UNK        -0.1985 
     62 C          32.7205    0.3134   -9.0239 C.2       10 UNK         0.4970 
     63 O          33.9265    0.1101   -9.1750 O.2       10 UNK        -0.4914 
     64 N          32.1866    0.8910   -7.9407 N.am      11 UNK        -0.4285 
     65 CA         32.9096    1.3168   -6.7324 C.3       11 UNK         0.1007 
     66 C          33.0097    2.8638   -6.5986 C.2       11 UNK         0.5703 
     67 N          32.5919    3.6472   -7.5872 N.am      11 UNK        -0.7361 
     68 O          33.5029    3.3668   -5.5923 O.2       11 UNK        -0.4986 
     69 C69        32.2987    0.6559   -5.4658 C.3       12 UNK        -0.0947 
     70 S70        32.5076   -1.1578   -5.4998 S.3       12 UNK        -0.2240 
     71 C71        33.3073   -1.4987   -3.9047 C.3       12 UNK         0.0194 
     72 H72        30.4412   -4.7419   -7.0495 H         1 UNK         0.0906 
     73 H73        31.1246   -4.1831   -5.5215 H         1 UNK         0.0906 
     74 H74        31.4781   -5.8091   -6.1013 H         1 UNK         0.0906 
     75 H75        29.5261   -4.1046   -3.9430 H         1 UNK         0.3140 
     76 H76        27.9897   -6.4143   -3.2230 H         1 UNK         0.1085 
     77 H77        28.1463   -3.5389   -2.1895 H         1 UNK         0.0836 
     78 H78        26.8988   -4.5974   -1.6153 H         1 UNK         0.0836 
     79 H79        30.8492   -5.5752   -2.3190 H         1 UNK         0.0731 
     80 H80        31.3827   -5.3935   -0.6733 H         1 UNK         0.0731 
     81 H81        32.3675   -3.9516   -3.2383 H         1 UNK         0.1312 
     82 H82        31.9942    0.1874   -2.2004 H         1 UNK         0.1406 
     83 H83        29.7555   -2.7676   -0.0472 H         1 UNK         0.1631 
     84 H84        30.8841    0.7293   -0.0175 H         1 UNK         0.0717 
     85 H85        30.0061   -0.5038    0.8402 H         1 UNK         0.0717 
     86 H86        28.8822    2.7775   -1.5434 H         1 UNK         0.0934 
     87 H87        30.2509    1.8156   -2.0216 H         1 UNK         0.0934 
     88 H88        28.9011    0.7011   -3.8024 H         1 UNK         0.0739 
     89 H89        26.6898    2.1806   -2.6083 H         1 UNK         0.3093 
     90 H90        24.5919    1.6175   -3.1021 H         1 UNK         0.0818 
     91 H91        24.9566    3.6050   -4.6052 H         1 UNK         0.0819 
     92 H92        24.5916    2.6207   -6.0163 H         1 UNK         0.0819 
     93 H93        23.3393    2.9547   -4.8217 H         1 UNK         0.0819 
     94 H94        24.5535   -0.2431   -5.3358 H         1 UNK         0.3041 
     95 H95        21.8826   -1.9647   -3.8963 H         1 UNK         0.0784 
     96 H96        20.4043   -0.4807   -5.2679 H         1 UNK         0.0793 
     97 H97        21.5332   -0.5785   -6.6117 H         1 UNK         0.0793 
     98 H98        20.6740   -2.0201   -6.0647 H         1 UNK         0.0793 
     99 H99        23.1193   -2.4828   -6.3729 H         1 UNK         0.3024 
    100 H100       24.6463   -4.6521   -5.9470 H         1 UNK         0.1171 
    101 H101       24.7161   -2.9113   -7.6585 H         1 UNK         0.0786 
    102 H102       25.9980   -2.0458   -6.8265 H         1 UNK         0.0786 
    103 H103       26.3163   -3.6072   -7.5862 H         1 UNK         0.0786 
    104 H104       27.2606   -3.5675   -5.1533 H         1 UNK         0.2977 
    105 H105       28.1510    1.8698   -5.9011 H         1 UNK         0.3127 
    106 H106       29.9482    4.1108   -6.5019 H         1 UNK         0.0770 
    107 H107       28.1154    5.5744   -7.3172 H         1 UNK         0.0814 
    108 H108       27.8341    5.2113   -5.6315 H         1 UNK         0.0814 
    109 H109       26.9023    4.3743   -6.8662 H         1 UNK         0.0814 
    110 H110       28.3117    4.5448   -8.9825 H         1 UNK         0.2983 
    111 H111       29.7347    2.9093  -10.7313 H         1 UNK         0.0947 
    112 H112       28.2187    3.8772  -12.4747 H         1 UNK         0.0806 
    113 H113       28.7835    5.1077  -11.3592 H         1 UNK         0.0806 
    114 H114       27.1425    4.4744  -11.2193 H         1 UNK         0.0806 
    115 H115       26.6451    2.2134   -9.2228 H         1 UNK         0.3000 
    116 H116       25.7512    0.0870  -10.8976 H         1 UNK         0.0850 
    117 H117       25.2875    0.5828   -7.8991 H         1 UNK         0.0810 
    118 H118       24.3664   -0.5277   -8.9035 H         1 UNK         0.0810 
    119 H119       24.2866    1.1973   -9.2154 H         1 UNK         0.0810 
    120 H120       28.0069    0.1736   -8.1433 H         1 UNK         0.3040 
    121 H121       28.4895   -2.7536   -8.2385 H         1 UNK         0.0766 
    122 H122       28.1430   -1.6428   -6.0134 H         1 UNK         0.0812 
    123 H123       29.4808   -0.5526   -6.3422 H         1 UNK         0.0812 
    124 H124       29.7733   -2.2723   -6.1513 H         1 UNK         0.0812 
    125 H125       29.6933    0.0974   -9.5974 H         1 UNK         0.3205 
    126 H126       31.4828    0.8130  -10.6719 H         1 UNK         0.0754 
    127 H127       33.1554   -0.6750  -11.6696 H         1 UNK         0.0769 
    128 H128       31.5640   -1.3836  -11.8919 H         1 UNK         0.0769 
    129 H129       32.6526   -2.0185  -10.6580 H         1 UNK         0.0769 
    130 H130       31.1848    1.0640   -7.9277 H         1 UNK         0.2981 
    131 H131       33.9466    0.9843   -6.8018 H         1 UNK         0.0541 
    132 H132       32.2308    3.2478   -8.4374 H         1 UNK         0.3459 
    133 H133       32.6861    4.6461   -7.4948 H         1 UNK         0.3459 
    134 H134       31.2348    0.8820   -5.3904 H         1 UNK         0.0612 
    135 H135       32.7575    1.0523   -4.5591 H         1 UNK         0.0612 
    136 H136       33.9244   -0.6555   -3.5918 H         1 UNK         0.0624 
    137 H137       33.9942   -2.3357   -4.0384 H         1 UNK         0.0624 
@<TRIPOS>BOND
     1    1    2 1    
     2    1   72 1    
     3    1   73 1    
     4    1   74 1    
     5    2    3 2    
     6    2    4 am   BACKBONE|DICT|INTERRES
     7    4    5 1    
     8    4   75 1    
     9    5    6 1    
    10    5   35 1    
    11    5   76 1    
    12    6    7 1    
    13    6   77 1    
    14    6   78 1    
    15    7    8 1    
    16    8    9 1    
    17    8   79 1    
    18    8   80 1    
    19    9   10 ar   
    20    9   14 ar   
    21   10   11 ar   
    22   10   81 1    
    23   11   12 ar   
    24   11   71 1    
    25   12   13 ar   
    26   12   82 1    
    27   13   14 ar   
    28   13   15 1    
    29   14   83 1    
    30   15   16 1    
    31   15   84 1    
    32   15   85 1    
    33   16   17 1    
    34   17   18 1    
    35   17   86 1    
    36   17   87 1    
    37   18   19 1    
    38   18   37 1    
    39   18   88 1    
    40   19   20 am   BACKBONE|DICT|INTERRES
    41   19   89 1    
    42   20   21 2    
    43   20   22 1    
    44   22   23 1    
    45   22   24 1    
    46   22   90 1    
    47   23   91 1    
    48   23   92 1    
    49   23   93 1    
    50   24   25 am   BACKBONE|DICT|INTERRES
    51   24   94 1    
    52   25   26 2    
    53   25   27 1    
    54   27   28 1    
    55   27   29 1    
    56   27   95 1    
    57   28   96 1    
    58   28   97 1    
    59   28   98 1    
    60   29   30 am   BACKBONE|DICT|INTERRES
    61   29   99 1    
    62   30   31 2    
    63   30   32 1    
    64   32   33 1    
    65   32   34 1    
    66   32  100 1    
    67   33  101 1    
    68   33  102 1    
    69   33  103 1    
    70   34   35 am   BACKBONE|DICT|INTERRES
    71   34  104 1    
    72   35   36 2    
    73   37   38 2    
    74   37   39 am   BACKBONE|DICT|INTERRES
    75   39   40 1    
    76   39  105 1    
    77   40   41 1    
    78   40   42 1    
    79   40  106 1    
    80   41  107 1    
    81   41  108 1    
    82   41  109 1    
    83   42   43 2    
    84   42   44 am   BACKBONE|DICT|INTERRES
    85   44   45 1    
    86   44  110 1    
    87   45   46 1    
    88   45   47 1    
    89   45  111 1    
    90   46  112 1    
    91   46  113 1    
    92   46  114 1    
    93   47   48 2    
    94   47   49 am   BACKBONE|DICT|INTERRES
    95   49   50 1    
    96   49  115 1    
    97   50   51 1    
    98   50   52 1    
    99   50  116 1    
   100   51  117 1    
   101   51  118 1    
   102   51  119 1    
   103   52   53 2    
   104   52   54 am   BACKBONE|DICT|INTERRES
   105   54   55 1    
   106   54  120 1    
   107   55   56 1    
   108   55   57 1    
   109   55  121 1    
   110   56  122 1    
   111   56  123 1    
   112   56  124 1    
   113   57   58 2    
   114   57   59 am   BACKBONE|DICT|INTERRES
   115   59   60 1    
   116   59  125 1    
   117   60   61 1    
   118   60   62 1    
   119   60  126 1    
   120   61  127 1    
   121   61  128 1    
   122   61  129 1    
   123   62   63 2    
   124   62   64 am   BACKBONE|DICT|INTERRES
   125   64   65 1    
   126   64  130 1    
   127   65   66 1    
   128   65   69 1    
   129   65  131 1    
   130   66   67 am   BACKBONE|DICT|INTERRES
   131   66   68 2    
   132   67  132 1    
   133   67  133 1    
   134   69   70 1    
   135   69  134 1    
   136   69  135 1    
   137   70   71 1    
   138   71  136 1    
   139   71  137 1    
@<TRIPOS>SUBSTRUCTURE
     1 UNK         1 GROUP             0       ****    0 ROOT    
