@<TRIPOS>MOLECULE
3R137
137   139    1
SMALL
USER_CHARGES


@<TRIPOS>ATOM
      1 CA         28.4504   -2.9689    2.1051 C.3       0 UNK        -0.2020 
      2 C          29.4883   -2.1026    1.3955 C.2       0 UNK         0.4855 
      3 O          30.2737   -1.4431    2.0745 O.2       0 UNK        -0.5197 
      4 N          29.5588   -2.0618    0.0563 N.am      1 UNK        -0.4892 
      5 CA         28.7074   -2.7150   -0.9550 C.3       1 UNK         0.0835 
      6 C6         28.6663   -4.2731   -0.8781 C.3       12 UNK        -0.0855 
      7 S7         30.3169   -5.0360   -0.6904 S.3       12 UNK        -0.2931 
      8 C8         30.6532   -5.6725   -2.3676 C.3       12 UNK         0.0378 
      9 C9         30.6834   -4.5870   -3.4397 C.ar      12 UNK        -0.0802 
     10 C10        31.4134   -3.4078   -3.2505 C.ar      12 UNK        -0.0944 
     11 C11        31.4368   -2.4198   -4.2384 C.ar      12 UNK        -0.0787 
     12 C12        30.7373   -2.6226   -5.4304 C.ar      12 UNK        -0.0862 
     13 C13        30.0320   -3.8089   -5.6499 C.ar      12 UNK        -0.0733 
     14 C14        30.0060   -4.7850   -4.6476 C.ar      12 UNK        -0.0832 
     15 C15        29.3564   -4.0461   -6.9965 C.3       12 UNK         0.0240 
     16 S16        27.6433   -4.6582   -6.8689 S.3       12 UNK        -0.2522 
     17 C17        26.7945   -3.2773   -6.0385 C.3       12 UNK        -0.0967 
     18 CA         26.2426   -2.2302   -7.0416 C.3       5 UNK         0.0660 
     19 N          24.9459   -1.6948   -6.6278 N.am      5 UNK        -0.4015 
     20 C          24.0836   -1.0703   -7.4427 C.2       4 UNK         0.4946 
     21 O          24.2566   -0.9403   -8.6544 O.2       4 UNK        -0.5353 
     22 CA         22.8227   -0.4686   -6.7955 C.3       4 UNK         0.0277 
     23 CB         21.6671   -1.4816   -6.8269 C.3       4 UNK        -0.1981 
     24 N          23.0400   -0.0189   -5.4173 N.am      4 UNK        -0.4209 
     25 C          23.8341    1.0054   -5.0738 C.2       3 UNK         0.4942 
     26 O          24.4293    1.7106   -5.8859 O.2       3 UNK        -0.5208 
     27 CA         24.0498    1.2447   -3.5705 C.3       3 UNK         0.0250 
     28 CB         22.9277    2.1243   -2.9967 C.3       3 UNK        -0.1990 
     29 N          24.1631    0.0102   -2.7840 N.am      3 UNK        -0.4232 
     30 C          25.0846   -0.9426   -2.9825 C.2       2 UNK         0.4993 
     31 O          25.9074   -0.9238   -3.9025 O.2       2 UNK        -0.5286 
     32 CA         25.0427   -2.1500   -2.0337 C.3       2 UNK         0.0209 
     33 CB         24.1586   -3.2625   -2.6205 C.3       2 UNK        -0.1931 
     34 N          26.3873   -2.6792   -1.7928 N.am      2 UNK        -0.4546 
     35 C          27.3062   -2.0640   -1.0359 C.2       1 UNK         0.5154 
     36 O          27.0740   -1.0192   -0.4206 O.2       1 UNK        -0.5181 
     37 C          27.2356   -1.0784   -7.2705 C.2       5 UNK         0.5014 
     38 O          27.8555   -1.0150   -8.3309 O.2       5 UNK        -0.5248 
     39 N          27.3240   -0.1600   -6.2968 N.am      6 UNK        -0.4434 
     40 CA         28.1624    1.0407   -6.3540 C.3       6 UNK         0.0363 
     41 CB         28.0987    1.7718   -5.0048 C.3       6 UNK        -0.1936 
     42 C          27.8002    1.9917   -7.5104 C.2       6 UNK         0.5081 
     43 O          28.6930    2.6207   -8.0748 O.2       6 UNK        -0.5248 
     44 N          26.5103    2.0655   -7.8661 N.am      7 UNK        -0.4718 
     45 CA         26.0178    2.7929   -9.0382 C.3       7 UNK         0.0273 
     46 CB         24.4875    2.9122   -8.9604 C.3       7 UNK        -0.1935 
     47 C          26.4378    2.1499  -10.3729 C.2       7 UNK         0.5018 
     48 O          26.6301    2.8753  -11.3496 O.2       7 UNK        -0.5186 
     49 N          26.5641    0.8155  -10.4000 N.am      8 UNK        -0.4240 
     50 CA         26.9977    0.0515  -11.5703 C.3       8 UNK         0.0235 
     51 CB         26.4685   -1.3898  -11.4785 C.3       8 UNK        -0.2000 
     52 C          28.5256    0.0694  -11.7329 C.2       8 UNK         0.4941 
     53 O          29.0080    0.2827  -12.8464 O.2       8 UNK        -0.5273 
     54 N          29.2573   -0.1475  -10.6334 N.am      9 UNK        -0.4262 
     55 CA         30.7159   -0.1629  -10.5870 C.3       9 UNK         0.0264 
     56 CB         31.2343   -1.5780  -10.9072 C.3       9 UNK        -0.1955 
     57 C          31.1605    0.3096   -9.1998 C.2       9 UNK         0.5031 
     58 O          31.0986   -0.4665   -8.2458 O.2       9 UNK        -0.5390 
     59 N          31.5778    1.5770   -9.1030 N.am      10 UNK        -0.4204 
     60 CA         32.0451    2.1949   -7.8613 C.3       10 UNK         0.0237 
     61 CB         32.0796    3.7222   -8.0376 C.3       10 UNK        -0.1985 
     62 C          33.4301    1.6706   -7.4511 C.2       10 UNK         0.4970 
     63 O          34.2895    1.4774   -8.3147 O.2       10 UNK        -0.4914 
     64 N          33.6276    1.5003   -6.1396 N.am      11 UNK        -0.4285 
     65 CA         34.9083    1.1030   -5.5305 C.3       11 UNK         0.1007 
     66 C          35.8764    2.2936   -5.2639 C.2       11 UNK         0.5703 
     67 N          35.4793    3.5429   -5.4781 N.am      11 UNK        -0.7361 
     68 O          37.0197    2.0784   -4.8678 O.2       11 UNK        -0.4986 
     69 C69        34.6863    0.2527   -4.2513 C.3       12 UNK        -0.0947 
     70 S70        33.9437   -1.3693   -4.6265 S.3       12 UNK        -0.2240 
     71 C71        32.2408   -1.1466   -4.0321 C.3       12 UNK         0.0194 
     72 H72        28.3264   -2.6387    3.1362 H         1 UNK         0.0906 
     73 H73        27.4719   -2.9170    1.6325 H         1 UNK         0.0906 
     74 H74        28.7790   -4.0074    2.1285 H         1 UNK         0.0906 
     75 H75        30.2589   -1.4523   -0.3411 H         1 UNK         0.3140 
     76 H76        29.1705   -2.4598   -1.9088 H         1 UNK         0.1085 
     77 H77        28.0414   -4.6119   -0.0516 H         1 UNK         0.0836 
     78 H78        28.2045   -4.6874   -1.7756 H         1 UNK         0.0836 
     79 H79        31.6184   -6.1804   -2.3611 H         1 UNK         0.0731 
     80 H80        29.9077   -6.4330   -2.6055 H         1 UNK         0.0731 
     81 H81        31.9638   -3.2587   -2.3315 H         1 UNK         0.1312 
     82 H82        30.7701   -1.8656   -6.2011 H         1 UNK         0.1406 
     83 H83        29.4668   -5.7071   -4.8177 H         1 UNK         0.1631 
     84 H84        29.3663   -3.1390   -7.6022 H         1 UNK         0.0717 
     85 H85        29.9433   -4.7811   -7.5485 H         1 UNK         0.0717 
     86 H86        25.9714   -3.7326   -5.4874 H         1 UNK         0.0934 
     87 H87        27.4364   -2.8341   -5.2739 H         1 UNK         0.0934 
     88 H88        26.0851   -2.7204   -8.0054 H         1 UNK         0.0739 
     89 H89        24.7696   -1.6798   -5.6330 H         1 UNK         0.3093 
     90 H90        22.5324    0.4002   -7.3904 H         1 UNK         0.0818 
     91 H91        20.7438   -1.0427   -6.4484 H         1 UNK         0.0819 
     92 H92        21.4700   -1.8153   -7.8468 H         1 UNK         0.0819 
     93 H93        21.8878   -2.3684   -6.2313 H         1 UNK         0.0819 
     94 H94        22.5793   -0.5383   -4.6841 H         1 UNK         0.3041 
     95 H95        24.9925    1.7848   -3.4612 H         1 UNK         0.0784 
     96 H96        22.8381    3.0563   -3.5571 H         1 UNK         0.0793 
     97 H97        21.9587    1.6251   -3.0377 H         1 UNK         0.0793 
     98 H98        23.1245    2.3921   -1.9584 H         1 UNK         0.0793 
     99 H99        23.5146   -0.0922   -2.0161 H         1 UNK         0.3024 
    100 H100       24.6199   -1.8330   -1.0772 H         1 UNK         0.1171 
    101 H101       24.0942   -4.1145   -1.9432 H         1 UNK         0.0786 
    102 H102       23.1402   -2.9086   -2.7872 H         1 UNK         0.0786 
    103 H103       24.5380   -3.6242   -3.5761 H         1 UNK         0.0786 
    104 H104       26.6435   -3.5093   -2.3056 H         1 UNK         0.2977 
    105 H105       26.7872   -0.3065   -5.4438 H         1 UNK         0.3127 
    106 H106       29.1898    0.7081   -6.5151 H         1 UNK         0.0770 
    107 H107       27.0893    2.1212   -4.7860 H         1 UNK         0.0814 
    108 H108       28.7543    2.6436   -5.0032 H         1 UNK         0.0814 
    109 H109       28.4148    1.1245   -4.1864 H         1 UNK         0.0814 
    110 H110       25.8145    1.6159   -7.2778 H         1 UNK         0.2983 
    111 H111       26.4407    3.7996   -9.0123 H         1 UNK         0.0947 
    112 H112       24.0937    3.4634   -9.8154 H         1 UNK         0.0806 
    113 H113       24.1766    3.4444   -8.0613 H         1 UNK         0.0806 
    114 H114       24.0075    1.9329   -8.9529 H         1 UNK         0.0806 
    115 H115       26.4130    0.2941   -9.5457 H         1 UNK         0.3000 
    116 H116       26.5626    0.5067  -12.4629 H         1 UNK         0.0850 
    117 H117       25.3810   -1.4073  -11.4029 H         1 UNK         0.0810 
    118 H118       26.8693   -1.9198  -10.6143 H         1 UNK         0.0810 
    119 H119       26.7425   -1.9615  -12.3661 H         1 UNK         0.0810 
    120 H120       28.7848   -0.3437   -9.7495 H         1 UNK         0.3040 
    121 H121       31.1165    0.5281  -11.3320 H         1 UNK         0.0766 
    122 H122       30.9706   -1.8771  -11.9216 H         1 UNK         0.0812 
    123 H123       30.8239   -2.3213  -10.2221 H         1 UNK         0.0812 
    124 H124       32.3210   -1.6223  -10.8262 H         1 UNK         0.0812 
    125 H125       31.6069    2.1504   -9.9330 H         1 UNK         0.3205 
    126 H126       31.3267    1.9559   -7.0740 H         1 UNK         0.0754 
    127 H127       32.3794    4.2174   -7.1133 H         1 UNK         0.0769 
    128 H128       31.0966    4.1111   -8.3050 H         1 UNK         0.0769 
    129 H129       32.7834    4.0246   -8.8143 H         1 UNK         0.0769 
    130 H130       32.8787    1.7061   -5.4961 H         1 UNK         0.2981 
    131 H131       35.4390    0.4696   -6.2442 H         1 UNK         0.0541 
    132 H132       34.5494    3.7374   -5.8101 H         1 UNK         0.3459 
    133 H133       36.1227    4.2994   -5.3059 H         1 UNK         0.3459 
    134 H134       34.0733    0.7912   -3.5266 H         1 UNK         0.0612 
    135 H135       35.6356    0.0500   -3.7520 H         1 UNK         0.0612 
    136 H136       31.7738   -0.3161   -4.5638 H         1 UNK         0.0624 
    137 H137       32.2544   -0.8768   -2.9750 H         1 UNK         0.0624 
@<TRIPOS>BOND
     1    1    2 1    
     2    1   72 1    
     3    1   73 1    
     4    1   74 1    
     5    2    3 2    
     6    2    4 am   BACKBONE|DICT|INTERRES
     7    4    5 1    
     8    4   75 1    
     9    5    6 1    
    10    5   35 1    
    11    5   76 1    
    12    6    7 1    
    13    6   77 1    
    14    6   78 1    
    15    7    8 1    
    16    8    9 1    
    17    8   79 1    
    18    8   80 1    
    19    9   10 ar   
    20    9   14 ar   
    21   10   11 ar   
    22   10   81 1    
    23   11   12 ar   
    24   11   71 1    
    25   12   13 ar   
    26   12   82 1    
    27   13   14 ar   
    28   13   15 1    
    29   14   83 1    
    30   15   16 1    
    31   15   84 1    
    32   15   85 1    
    33   16   17 1    
    34   17   18 1    
    35   17   86 1    
    36   17   87 1    
    37   18   19 1    
    38   18   37 1    
    39   18   88 1    
    40   19   20 am   BACKBONE|DICT|INTERRES
    41   19   89 1    
    42   20   21 2    
    43   20   22 1    
    44   22   23 1    
    45   22   24 1    
    46   22   90 1    
    47   23   91 1    
    48   23   92 1    
    49   23   93 1    
    50   24   25 am   BACKBONE|DICT|INTERRES
    51   24   94 1    
    52   25   26 2    
    53   25   27 1    
    54   27   28 1    
    55   27   29 1    
    56   27   95 1    
    57   28   96 1    
    58   28   97 1    
    59   28   98 1    
    60   29   30 am   BACKBONE|DICT|INTERRES
    61   29   99 1    
    62   30   31 2    
    63   30   32 1    
    64   32   33 1    
    65   32   34 1    
    66   32  100 1    
    67   33  101 1    
    68   33  102 1    
    69   33  103 1    
    70   34   35 am   BACKBONE|DICT|INTERRES
    71   34  104 1    
    72   35   36 2    
    73   37   38 2    
    74   37   39 am   BACKBONE|DICT|INTERRES
    75   39   40 1    
    76   39  105 1    
    77   40   41 1    
    78   40   42 1    
    79   40  106 1    
    80   41  107 1    
    81   41  108 1    
    82   41  109 1    
    83   42   43 2    
    84   42   44 am   BACKBONE|DICT|INTERRES
    85   44   45 1    
    86   44  110 1    
    87   45   46 1    
    88   45   47 1    
    89   45  111 1    
    90   46  112 1    
    91   46  113 1    
    92   46  114 1    
    93   47   48 2    
    94   47   49 am   BACKBONE|DICT|INTERRES
    95   49   50 1    
    96   49  115 1    
    97   50   51 1    
    98   50   52 1    
    99   50  116 1    
   100   51  117 1    
   101   51  118 1    
   102   51  119 1    
   103   52   53 2    
   104   52   54 am   BACKBONE|DICT|INTERRES
   105   54   55 1    
   106   54  120 1    
   107   55   56 1    
   108   55   57 1    
   109   55  121 1    
   110   56  122 1    
   111   56  123 1    
   112   56  124 1    
   113   57   58 2    
   114   57   59 am   BACKBONE|DICT|INTERRES
   115   59   60 1    
   116   59  125 1    
   117   60   61 1    
   118   60   62 1    
   119   60  126 1    
   120   61  127 1    
   121   61  128 1    
   122   61  129 1    
   123   62   63 2    
   124   62   64 am   BACKBONE|DICT|INTERRES
   125   64   65 1    
   126   64  130 1    
   127   65   66 1    
   128   65   69 1    
   129   65  131 1    
   130   66   67 am   BACKBONE|DICT|INTERRES
   131   66   68 2    
   132   67  132 1    
   133   67  133 1    
   134   69   70 1    
   135   69  134 1    
   136   69  135 1    
   137   70   71 1    
   138   71  136 1    
   139   71  137 1    
@<TRIPOS>SUBSTRUCTURE
     1 UNK         1 GROUP             0       ****    0 ROOT    
