@<TRIPOS>MOLECULE
3R137
137   139    1
SMALL
USER_CHARGES


@<TRIPOS>ATOM
      1 CA         25.8590   -4.8158    3.1376 C.3       0 UNK        -0.2020 
      2 C          26.4050   -3.5542    2.4862 C.2       0 UNK         0.4855 
      3 O          26.0481   -2.4502    2.8978 O.2       0 UNK        -0.5197 
      4 N          27.2729   -3.7117    1.4791 N.am      1 UNK        -0.4892 
      5 CA         27.8667   -2.6306    0.6836 C.3       1 UNK         0.0835 
      6 C6         29.0709   -3.1197   -0.1636 C.3       12 UNK        -0.0855 
      7 S7         28.7791   -4.6985   -1.0429 S.3       12 UNK        -0.2931 
      8 C8         30.4205   -5.0044   -1.7644 C.3       12 UNK         0.0378 
      9 C9         30.6603   -4.1114   -2.9704 C.ar      12 UNK        -0.0802 
     10 C10        31.3782   -2.9203   -2.8413 C.ar      12 UNK        -0.0944 
     11 C11        31.5810   -2.0796   -3.9401 C.ar      12 UNK        -0.0787 
     12 C12        31.0562   -2.4581   -5.1853 C.ar      12 UNK        -0.0862 
     13 C13        30.3357   -3.6509   -5.3300 C.ar      12 UNK        -0.0733 
     14 C14        30.1525   -4.4770   -4.2177 C.ar      12 UNK        -0.0832 
     15 C15        29.7932   -4.0496   -6.7002 C.3       12 UNK         0.0240 
     16 S16        28.1224   -4.7975   -6.6863 S.3       12 UNK        -0.2522 
     17 C17        27.0875   -3.5200   -5.8925 C.3       12 UNK        -0.0967 
     18 CA         26.5562   -2.4593   -6.8923 C.3       5 UNK         0.0660 
     19 N          25.2904   -1.8654   -6.4611 N.am      5 UNK        -0.4015 
     20 C          24.4519   -1.2074   -7.2768 C.2       4 UNK         0.4946 
     21 O          24.5925   -1.1448   -8.4979 O.2       4 UNK        -0.5353 
     22 CA         23.2679   -0.4683   -6.6274 C.3       4 UNK         0.0277 
     23 CB         22.0288   -1.3765   -6.5778 C.3       4 UNK        -0.1981 
     24 N          23.5607    0.0302   -5.2816 N.am      4 UNK        -0.4209 
     25 C          24.4823    0.9609   -4.9923 C.2       3 UNK         0.4942 
     26 O          25.1515    1.5511   -5.8384 O.2       3 UNK        -0.5208 
     27 CA         24.7418    1.2385   -3.5026 C.3       3 UNK         0.0250 
     28 CB         23.8313    2.3697   -2.9998 C.3       3 UNK        -0.1990 
     29 N          24.5790    0.0577   -2.6475 N.am      3 UNK        -0.4232 
     30 C          25.2842   -1.0776   -2.7576 C.2       2 UNK         0.4993 
     31 O          26.1403   -1.2763   -3.6249 O.2       2 UNK        -0.5286 
     32 CA         24.9193   -2.2013   -1.7719 C.3       2 UNK         0.0209 
     33 CB         24.3271   -3.4025   -2.5280 C.3       2 UNK        -0.1931 
     34 N          26.0505   -2.6572   -0.9614 N.am      2 UNK        -0.4546 
     35 C          26.8106   -1.8922   -0.1646 C.2       1 UNK         0.5154 
     36 O          26.6733   -0.6740   -0.0386 O.2       1 UNK        -0.5181 
     37 C          27.5874   -1.3444   -7.1199 C.2       5 UNK         0.5014 
     38 O          28.1796   -1.2725   -8.1971 O.2       5 UNK        -0.5248 
     39 N          27.7676   -0.4891   -6.1025 N.am      6 UNK        -0.4434 
     40 CA         28.7641    0.5813   -6.0827 C.3       6 UNK         0.0363 
     41 CB         28.7306    1.3000   -4.7261 C.3       6 UNK        -0.1936 
     42 C          28.6328    1.5807   -7.2407 C.2       6 UNK         0.5081 
     43 O          29.6392    1.8999   -7.8740 O.2       6 UNK        -0.5248 
     44 N          27.3995    2.0190   -7.5256 N.am      7 UNK        -0.4718 
     45 CA         27.0786    2.9273   -8.6289 C.3       7 UNK         0.0273 
     46 CB         25.6320    3.4231   -8.4758 C.3       7 UNK        -0.1935 
     47 C          27.2856    2.3024  -10.0190 C.2       7 UNK         0.5018 
     48 O          27.6338    3.0262  -10.9523 O.2       7 UNK        -0.5186 
     49 N          27.0707    0.9845  -10.1370 N.am      8 UNK        -0.4240 
     50 CA         27.2815    0.2283  -11.3719 C.3       8 UNK         0.0235 
     51 CB         26.4769   -1.0809  -11.3269 C.3       8 UNK        -0.2000 
     52 C          28.7706   -0.0511  -11.6216 C.2       8 UNK         0.4941 
     53 O          29.2395    0.1318  -12.7457 O.2       8 UNK        -0.5273 
     54 N          29.4835   -0.4901  -10.5754 N.am      9 UNK        -0.4262 
     55 CA         30.9085   -0.8200  -10.6271 C.3       9 UNK         0.0264 
     56 CB         31.2746   -1.6820   -9.4088 C.3       9 UNK        -0.1955 
     57 C          31.8259    0.4102  -10.6967 C.2       9 UNK         0.5031 
     58 O          32.9090    0.3046  -11.2740 O.2       9 UNK        -0.5390 
     59 N          31.4003    1.5272  -10.0839 N.am      10 UNK        -0.4204 
     60 CA         32.1747    2.7520   -9.8433 C.3       10 UNK         0.0237 
     61 CB         32.5145    3.4742  -11.1650 C.3       10 UNK        -0.1985 
     62 C          33.4059    2.4649   -8.9612 C.2       10 UNK         0.4970 
     63 O          34.5209    2.8719   -9.2928 O.2       10 UNK        -0.4914 
     64 N          33.1719    1.7261   -7.8683 N.am      11 UNK        -0.4285 
     65 CA         34.1993    1.2207   -6.9441 C.3       11 UNK         0.1007 
     66 C          34.9021    2.2940   -6.0591 C.2       11 UNK         0.5703 
     67 N          34.4150    3.5276   -5.9933 N.am      11 UNK        -0.7361 
     68 O          35.9173    2.0017   -5.4312 O.2       11 UNK        -0.4986 
     69 C69        33.6633    0.0223   -6.1139 C.3       12 UNK        -0.0947 
     70 S70        32.2689    0.4733   -5.0250 S.3       12 UNK        -0.2240 
     71 C71        32.3746   -0.7889   -3.7105 C.3       12 UNK         0.0194 
     72 H72        24.7736   -4.8457    3.0455 H         1 UNK         0.0906 
     73 H73        26.2628   -5.7191    2.6805 H         1 UNK         0.0906 
     74 H74        26.1117   -4.8305    4.1975 H         1 UNK         0.0906 
     75 H75        27.5297   -4.6433    1.1809 H         1 UNK         0.3140 
     76 H76        28.2531   -1.8919    1.3900 H         1 UNK         0.1085 
     77 H77        29.3748   -2.3551   -0.8812 H         1 UNK         0.0836 
     78 H78        29.9295   -3.2628    0.4946 H         1 UNK         0.0836 
     79 H79        31.1939   -4.8565   -1.0089 H         1 UNK         0.0731 
     80 H80        30.4851   -6.0513   -2.0648 H         1 UNK         0.0731 
     81 H81        31.7748   -2.6409   -1.8745 H         1 UNK         0.1312 
     82 H82        31.2079   -1.8321   -6.0515 H         1 UNK         0.1406 
     83 H83        29.6018   -5.4026   -4.3171 H         1 UNK         0.1631 
     84 H84        29.7804   -3.1894   -7.3659 H         1 UNK         0.0717 
     85 H85        30.4850   -4.7647   -7.1467 H         1 UNK         0.0717 
     86 H86        26.2452   -4.0541   -5.4505 H         1 UNK         0.0934 
     87 H87        27.6144   -3.0742   -5.0461 H         1 UNK         0.0934 
     88 H88        26.3765   -2.9499   -7.8519 H         1 UNK         0.0739 
     89 H89        25.1447   -1.8102   -5.4613 H         1 UNK         0.3093 
     90 H90        23.0375    0.3940   -7.2571 H         1 UNK         0.0818 
     91 H91        21.1575   -0.8400   -6.2014 H         1 UNK         0.0819 
     92 H92        21.7748   -1.7428   -7.5737 H         1 UNK         0.0819 
     93 H93        22.1892   -2.2479   -5.9416 H         1 UNK         0.0819 
     94 H94        23.0495   -0.3878   -4.5180 H         1 UNK         0.3041 
     95 H95        25.7771    1.5681   -3.4051 H         1 UNK         0.0784 
     96 H96        23.9527    3.2669   -3.6088 H         1 UNK         0.0793 
     97 H97        22.7776    2.0903   -3.0380 H         1 UNK         0.0793 
     98 H98        24.0699    2.6447   -1.9722 H         1 UNK         0.0793 
     99 H99        23.8993    0.1364   -1.9044 H         1 UNK         0.3024 
    100 H100       24.1613   -1.8287   -1.0796 H         1 UNK         0.1171 
    101 H101       23.9728   -4.1697   -1.8392 H         1 UNK         0.0786 
    102 H102       23.4757   -3.1022   -3.1405 H         1 UNK         0.0786 
    103 H103       25.0612   -3.8620   -3.1912 H         1 UNK         0.0786 
    104 H104       26.2775   -3.6402   -1.0122 H         1 UNK         0.2977 
    105 H105       27.2336   -0.6320   -5.2506 H         1 UNK         0.3127 
    106 H106       29.7329    0.0963   -6.1923 H         1 UNK         0.0770 
    107 H107       27.7829    1.8129   -4.5662 H         1 UNK         0.0814 
    108 H108       29.5201    2.0502   -4.6658 H         1 UNK         0.0814 
    109 H109       28.8836    0.6020   -3.9025 H         1 UNK         0.0814 
    110 H110       26.6232    1.7280   -6.9324 H         1 UNK         0.2983 
    111 H111       27.7458    3.7891   -8.5563 H         1 UNK         0.0947 
    112 H112       25.3710    4.1235   -9.2704 H         1 UNK         0.0806 
    113 H113       25.4892    3.9407   -7.5270 H         1 UNK         0.0806 
    114 H114       24.9181    2.5991   -8.5165 H         1 UNK         0.0806 
    115 H115       26.8132    0.4570   -9.3135 H         1 UNK         0.3000 
    116 H116       26.9083    0.8208  -12.2104 H         1 UNK         0.0850 
    117 H117       26.6155   -1.6563  -12.2431 H         1 UNK         0.0810 
    118 H118       25.4093   -0.8846  -11.2258 H         1 UNK         0.0810 
    119 H119       26.7770   -1.7166  -10.4931 H         1 UNK         0.0810 
    120 H120       29.0031   -0.6642   -9.6925 H         1 UNK         0.3040 
    121 H121       31.0884   -1.4130  -11.5265 H         1 UNK         0.0766 
    122 H122       30.7305   -2.6259   -9.4244 H         1 UNK         0.0812 
    123 H123       31.0463   -1.1725   -8.4718 H         1 UNK         0.0812 
    124 H124       32.3386   -1.9230   -9.4008 H         1 UNK         0.0812 
    125 H125       30.5196    1.4852   -9.5774 H         1 UNK         0.3205 
    126 H126       31.5296    3.4149   -9.2647 H         1 UNK         0.0754 
    127 H127       32.9830    4.4396  -10.9707 H         1 UNK         0.0769 
    128 H128       31.6166    3.6618  -11.7540 H         1 UNK         0.0769 
    129 H129       33.2051    2.8977  -11.7810 H         1 UNK         0.0769 
    130 H130       32.2190    1.4721   -7.6489 H         1 UNK         0.2981 
    131 H131       34.9956    0.8203   -7.5744 H         1 UNK         0.0541 
    132 H132       33.5825    3.7741   -6.5030 H         1 UNK         0.3459 
    133 H133       34.8818    4.2139   -5.4221 H         1 UNK         0.3459 
    134 H134       34.4679   -0.4093   -5.5163 H         1 UNK         0.0612 
    135 H135       33.3319   -0.7732   -6.7828 H         1 UNK         0.0612 
    136 H136       32.0080   -0.3204   -2.7959 H         1 UNK         0.0624 
    137 H137       33.4195   -1.0386   -3.5232 H         1 UNK         0.0624 
@<TRIPOS>BOND
     1    1    2 1    
     2    1   72 1    
     3    1   73 1    
     4    1   74 1    
     5    2    3 2    
     6    2    4 am   BACKBONE|DICT|INTERRES
     7    4    5 1    
     8    4   75 1    
     9    5    6 1    
    10    5   35 1    
    11    5   76 1    
    12    6    7 1    
    13    6   77 1    
    14    6   78 1    
    15    7    8 1    
    16    8    9 1    
    17    8   79 1    
    18    8   80 1    
    19    9   10 ar   
    20    9   14 ar   
    21   10   11 ar   
    22   10   81 1    
    23   11   12 ar   
    24   11   71 1    
    25   12   13 ar   
    26   12   82 1    
    27   13   14 ar   
    28   13   15 1    
    29   14   83 1    
    30   15   16 1    
    31   15   84 1    
    32   15   85 1    
    33   16   17 1    
    34   17   18 1    
    35   17   86 1    
    36   17   87 1    
    37   18   19 1    
    38   18   37 1    
    39   18   88 1    
    40   19   20 am   BACKBONE|DICT|INTERRES
    41   19   89 1    
    42   20   21 2    
    43   20   22 1    
    44   22   23 1    
    45   22   24 1    
    46   22   90 1    
    47   23   91 1    
    48   23   92 1    
    49   23   93 1    
    50   24   25 am   BACKBONE|DICT|INTERRES
    51   24   94 1    
    52   25   26 2    
    53   25   27 1    
    54   27   28 1    
    55   27   29 1    
    56   27   95 1    
    57   28   96 1    
    58   28   97 1    
    59   28   98 1    
    60   29   30 am   BACKBONE|DICT|INTERRES
    61   29   99 1    
    62   30   31 2    
    63   30   32 1    
    64   32   33 1    
    65   32   34 1    
    66   32  100 1    
    67   33  101 1    
    68   33  102 1    
    69   33  103 1    
    70   34   35 am   BACKBONE|DICT|INTERRES
    71   34  104 1    
    72   35   36 2    
    73   37   38 2    
    74   37   39 am   BACKBONE|DICT|INTERRES
    75   39   40 1    
    76   39  105 1    
    77   40   41 1    
    78   40   42 1    
    79   40  106 1    
    80   41  107 1    
    81   41  108 1    
    82   41  109 1    
    83   42   43 2    
    84   42   44 am   BACKBONE|DICT|INTERRES
    85   44   45 1    
    86   44  110 1    
    87   45   46 1    
    88   45   47 1    
    89   45  111 1    
    90   46  112 1    
    91   46  113 1    
    92   46  114 1    
    93   47   48 2    
    94   47   49 am   BACKBONE|DICT|INTERRES
    95   49   50 1    
    96   49  115 1    
    97   50   51 1    
    98   50   52 1    
    99   50  116 1    
   100   51  117 1    
   101   51  118 1    
   102   51  119 1    
   103   52   53 2    
   104   52   54 am   BACKBONE|DICT|INTERRES
   105   54   55 1    
   106   54  120 1    
   107   55   56 1    
   108   55   57 1    
   109   55  121 1    
   110   56  122 1    
   111   56  123 1    
   112   56  124 1    
   113   57   58 2    
   114   57   59 am   BACKBONE|DICT|INTERRES
   115   59   60 1    
   116   59  125 1    
   117   60   61 1    
   118   60   62 1    
   119   60  126 1    
   120   61  127 1    
   121   61  128 1    
   122   61  129 1    
   123   62   63 2    
   124   62   64 am   BACKBONE|DICT|INTERRES
   125   64   65 1    
   126   64  130 1    
   127   65   66 1    
   128   65   69 1    
   129   65  131 1    
   130   66   67 am   BACKBONE|DICT|INTERRES
   131   66   68 2    
   132   67  132 1    
   133   67  133 1    
   134   69   70 1    
   135   69  134 1    
   136   69  135 1    
   137   70   71 1    
   138   71  136 1    
   139   71  137 1    
@<TRIPOS>SUBSTRUCTURE
     1 UNK         1 GROUP             0       ****    0 ROOT    
