@<TRIPOS>MOLECULE
3R137
137   139    1
SMALL
USER_CHARGES


@<TRIPOS>ATOM
      1 CA         23.2853   -5.2000   -2.5409 C.3       0 UNK        -0.2020 
      2 C          24.1400   -4.2659   -1.6993 C.2       0 UNK         0.4855 
      3 O          23.6328   -3.2718   -1.1786 O.2       0 UNK        -0.5197 
      4 N          25.4349   -4.5810   -1.5718 N.am      1 UNK        -0.4892 
      5 CA         26.4680   -3.8317   -0.8460 C.3       1 UNK         0.0835 
      6 C6         27.8428   -4.5661   -0.8635 C.3       12 UNK        -0.0855 
      7 S7         28.2294   -5.4798   -2.4076 S.3       12 UNK        -0.2931 
      8 C8         30.0334   -5.2851   -2.5584 C.3       12 UNK         0.0378 
      9 C9         30.4078   -4.0804   -3.4096 C.ar      12 UNK        -0.0802 
     10 C10        30.6529   -4.2291   -4.7791 C.ar      12 UNK        -0.0944 
     11 C11        31.0256   -3.1285   -5.5584 C.ar      12 UNK        -0.0787 
     12 C12        31.1254   -1.8670   -4.9643 C.ar      12 UNK        -0.0862 
     13 C13        30.8929   -1.7084   -3.5961 C.ar      12 UNK        -0.0733 
     14 C14        30.5398   -2.8195   -2.8244 C.ar      12 UNK        -0.0832 
     15 C15        31.0513   -0.3487   -2.9349 C.3       12 UNK         0.0240 
     16 S16        29.4854    0.2119   -2.2047 S.3       12 UNK        -0.2522 
     17 C17        28.8416    1.3659   -3.4552 C.3       12 UNK        -0.0967 
     18 CA         28.5045    0.7691   -4.8492 C.3       5 UNK         0.0660 
     19 N          27.6845   -0.4511   -4.8200 N.am      5 UNK        -0.4015 
     20 C          27.2890   -1.1248   -5.9161 C.2       4 UNK         0.4946 
     21 O          27.6368   -0.8419   -7.0617 O.2       4 UNK        -0.5353 
     22 CA         26.2681   -2.2549   -5.7295 C.3       4 UNK         0.0277 
     23 CB         26.9609   -3.5729   -5.3521 C.3       4 UNK        -0.1981 
     24 N          25.2513   -1.8915   -4.7416 N.am      4 UNK        -0.4209 
     25 C          24.2861   -0.9854   -4.9681 C.2       3 UNK         0.4942 
     26 O          24.1095   -0.4366   -6.0548 O.2       3 UNK        -0.5208 
     27 CA         23.3956   -0.5799   -3.7815 C.3       3 UNK         0.0250 
     28 CB         22.1417   -1.4640   -3.7082 C.3       3 UNK        -0.1990 
     29 N          24.1121   -0.6135   -2.5052 N.am      3 UNK        -0.4232 
     30 C          25.0903    0.2474   -2.1848 C.2       2 UNK         0.4993 
     31 O          25.4264    1.1913   -2.9018 O.2       2 UNK        -0.5286 
     32 CA         25.8600   -0.0159   -0.8775 C.3       2 UNK         0.0209 
     33 CB         25.1978    0.7267    0.2935 C.3       2 UNK        -0.1931 
     34 N          25.9929   -1.4390   -0.5416 N.am      2 UNK        -0.4546 
     35 C          26.5569   -2.3683   -1.3284 C.2       1 UNK         0.5154 
     36 O          27.0579   -2.1111   -2.4218 O.2       1 UNK        -0.5181 
     37 C          27.8505    1.8645   -5.7134 C.2       5 UNK         0.5014 
     38 O          28.5058    2.4079   -6.6024 O.2       5 UNK        -0.5248 
     39 N          26.5666    2.1465   -5.4445 N.am      6 UNK        -0.4434 
     40 CA         25.7599    3.1305   -6.1671 C.3       6 UNK         0.0363 
     41 CB         24.3994    3.2886   -5.4695 C.3       6 UNK        -0.1936 
     42 C          25.5704    2.7926   -7.6557 C.2       6 UNK         0.5081 
     43 O          25.6624    3.6927   -8.4910 O.2       6 UNK        -0.5248 
     44 N          25.3076    1.5146   -7.9625 N.am      7 UNK        -0.4718 
     45 CA         25.1036    1.0256   -9.3265 C.3       7 UNK         0.0273 
     46 CB         24.4555   -0.3679   -9.2882 C.3       7 UNK        -0.1935 
     47 C          26.3949    0.9971  -10.1584 C.2       7 UNK         0.5018 
     48 O          26.3840    1.4627  -11.2990 O.2       7 UNK        -0.5186 
     49 N          27.4697    0.4281   -9.5958 N.am      8 UNK        -0.4240 
     50 CA         28.7281    0.1995  -10.3078 C.3       8 UNK         0.0235 
     51 CB         29.4600   -0.9919   -9.6721 C.3       8 UNK        -0.2000 
     52 C          29.6457    1.4306  -10.3462 C.2       8 UNK         0.4941 
     53 O          30.4629    1.5255  -11.2624 O.2       8 UNK        -0.5273 
     54 N          29.5401    2.3231   -9.3486 N.am      9 UNK        -0.4262 
     55 CA         30.3352    3.5427   -9.1173 C.3       9 UNK         0.0264 
     56 CB         30.2359    4.5219  -10.3048 C.3       9 UNK        -0.1955 
     57 C          31.8051    3.2999   -8.7116 C.2       9 UNK         0.5031 
     58 O          32.3838    4.1408   -8.0285 O.2       9 UNK        -0.5390 
     59 N          32.3779    2.1682   -9.1058 N.am      10 UNK        -0.4204 
     60 CA         33.7042    1.6739   -8.7522 C.3       10 UNK         0.0237 
     61 CB         34.7352    2.1908   -9.7714 C.3       10 UNK        -0.1985 
     62 C          33.6499    0.1403   -8.7346 C.2       10 UNK         0.4970 
     63 O          32.6726   -0.4397   -9.2131 O.2       10 UNK        -0.4914 
     64 N          34.6955   -0.4917   -8.1962 N.am      11 UNK        -0.4285 
     65 CA         34.8257   -1.9508   -8.1026 C.3       11 UNK         0.1007 
     66 C          36.3116   -2.3931   -8.1563 C.2       11 UNK         0.5703 
     67 N          36.5690   -3.6932   -8.2006 N.am      11 UNK        -0.7361 
     68 O          37.2320   -1.5754   -8.1549 O.2       11 UNK        -0.4986 
     69 C69        34.0599   -2.5245   -6.8731 C.3       12 UNK        -0.0947 
     70 S70        33.0190   -3.9609   -7.2983 S.3       12 UNK        -0.2240 
     71 C71        31.3375   -3.3063   -7.0379 C.3       12 UNK         0.0194 
     72 H72        22.2930   -5.3025   -2.1026 H         1 UNK         0.0906 
     73 H73        23.1747   -4.8059   -3.5503 H         1 UNK         0.0906 
     74 H74        23.7259   -6.1943   -2.6093 H         1 UNK         0.0906 
     75 H75        25.7960   -5.3875   -2.0637 H         1 UNK         0.3140 
     76 H76        26.1450   -3.7998    0.1967 H         1 UNK         0.1085 
     77 H77        27.8534   -5.3049   -0.0605 H         1 UNK         0.0836 
     78 H78        28.6546   -3.8780   -0.6225 H         1 UNK         0.0836 
     79 H79        30.4416   -6.1915   -3.0083 H         1 UNK         0.0731 
     80 H80        30.4886   -5.2124   -1.5695 H         1 UNK         0.0731 
     81 H81        30.5691   -5.2050   -5.2375 H         1 UNK         0.1312 
     82 H82        31.4041   -1.0123   -5.5647 H         1 UNK         0.1406 
     83 H83        30.3611   -2.6952   -1.7657 H         1 UNK         0.1631 
     84 H84        31.4289    0.3971   -3.6361 H         1 UNK         0.0717 
     85 H85        31.7970   -0.4293   -2.1428 H         1 UNK         0.0717 
     86 H86        27.9607    1.8329   -3.0120 H         1 UNK         0.0934 
     87 H87        29.5699    2.1722   -3.5651 H         1 UNK         0.0934 
     88 H88        29.4427    0.4981   -5.3353 H         1 UNK         0.0739 
     89 H89        27.4190   -0.8066   -3.9060 H         1 UNK         0.3093 
     90 H90        25.7635   -2.4114   -6.6854 H         1 UNK         0.0818 
     91 H91        27.6085   -3.4597   -4.4839 H         1 UNK         0.0819 
     92 H92        26.2405   -4.3616   -5.1364 H         1 UNK         0.0819 
     93 H93        27.5929   -3.9213   -6.1697 H         1 UNK         0.0819 
     94 H94        25.4074   -2.2217   -3.7978 H         1 UNK         0.3041 
     95 H95        23.0687    0.4478   -3.9536 H         1 UNK         0.0784 
     96 H96        21.5641   -1.3942   -4.6310 H         1 UNK         0.0793 
     97 H97        22.3921   -2.5134   -3.5615 H         1 UNK         0.0793 
     98 H98        21.4872   -1.1581   -2.8920 H         1 UNK         0.0793 
     99 H99        23.9101   -1.3887   -1.8796 H         1 UNK         0.3024 
    100 H100       26.8649    0.3866   -1.0101 H         1 UNK         0.1171 
    101 H101       25.7869    0.6347    1.2063 H         1 UNK         0.0786 
    102 H102       25.1050    1.7920    0.0766 H         1 UNK         0.0786 
    103 H103       24.1960    0.3468    0.4986 H         1 UNK         0.0786 
    104 H104       25.5525   -1.7381    0.3168 H         1 UNK         0.2977 
    105 H105       26.1197    1.6782   -4.6593 H         1 UNK         0.3127 
    106 H106       26.2841    4.0870   -6.1109 H         1 UNK         0.0770 
    107 H107       23.8323    2.3572   -5.4771 H         1 UNK         0.0814 
    108 H108       23.7914    4.0456   -5.9667 H         1 UNK         0.0814 
    109 H109       24.5191    3.5982   -4.4311 H         1 UNK         0.0814 
    110 H110       25.1892    0.8401   -7.2124 H         1 UNK         0.2983 
    111 H111       24.4071    1.7032   -9.8258 H         1 UNK         0.0947 
    112 H112       24.2923   -0.7524  -10.2959 H         1 UNK         0.0806 
    113 H113       23.4854   -0.3392   -8.7917 H         1 UNK         0.0806 
    114 H114       25.0794   -1.0893   -8.7592 H         1 UNK         0.0806 
    115 H115       27.4084    0.0575   -8.6475 H         1 UNK         0.3000 
    116 H116       28.4984   -0.0688  -11.3415 H         1 UNK         0.0850 
    117 H117       30.3387   -1.2656  -10.2570 H         1 UNK         0.0810 
    118 H118       28.8203   -1.8728   -9.6162 H         1 UNK         0.0810 
    119 H119       29.7998   -0.7592   -8.6622 H         1 UNK         0.0810 
    120 H120       28.8841    2.1193   -8.5995 H         1 UNK         0.3040 
    121 H121       29.8657    4.0297   -8.2612 H         1 UNK         0.0766 
    122 H122       29.1967    4.7320  -10.5596 H         1 UNK         0.0812 
    123 H123       30.7308    4.1369  -11.1967 H         1 UNK         0.0812 
    124 H124       30.7093    5.4741  -10.0616 H         1 UNK         0.0812 
    125 H125       31.8297    1.5272   -9.6693 H         1 UNK         0.3205 
    126 H126       33.9673    2.0182   -7.7503 H         1 UNK         0.0754 
    127 H127       35.7410    1.8466   -9.5276 H         1 UNK         0.0769 
    128 H128       34.7633    3.2802   -9.7875 H         1 UNK         0.0769 
    129 H129       34.5063    1.8489  -10.7814 H         1 UNK         0.0769 
    130 H130       35.5014    0.0286   -7.8760 H         1 UNK         0.2981 
    131 H131       34.3920   -2.3548   -9.0197 H         1 UNK         0.0541 
    132 H132       35.8182   -4.3671   -8.1878 H         1 UNK         0.3459 
    133 H133       37.5266   -4.0055   -8.2347 H         1 UNK         0.3459 
    134 H134       34.7392   -2.8180   -6.0737 H         1 UNK         0.0612 
    135 H135       33.4301   -1.7585   -6.4296 H         1 UNK         0.0612 
    136 H136       31.2317   -2.3625   -7.5735 H         1 UNK         0.0624 
    137 H137       30.6165   -3.9930   -7.4825 H         1 UNK         0.0624 
@<TRIPOS>BOND
     1    1    2 1    
     2    1   72 1    
     3    1   73 1    
     4    1   74 1    
     5    2    3 2    
     6    2    4 am   BACKBONE|DICT|INTERRES
     7    4    5 1    
     8    4   75 1    
     9    5    6 1    
    10    5   35 1    
    11    5   76 1    
    12    6    7 1    
    13    6   77 1    
    14    6   78 1    
    15    7    8 1    
    16    8    9 1    
    17    8   79 1    
    18    8   80 1    
    19    9   10 ar   
    20    9   14 ar   
    21   10   11 ar   
    22   10   81 1    
    23   11   12 ar   
    24   11   71 1    
    25   12   13 ar   
    26   12   82 1    
    27   13   14 ar   
    28   13   15 1    
    29   14   83 1    
    30   15   16 1    
    31   15   84 1    
    32   15   85 1    
    33   16   17 1    
    34   17   18 1    
    35   17   86 1    
    36   17   87 1    
    37   18   19 1    
    38   18   37 1    
    39   18   88 1    
    40   19   20 am   BACKBONE|DICT|INTERRES
    41   19   89 1    
    42   20   21 2    
    43   20   22 1    
    44   22   23 1    
    45   22   24 1    
    46   22   90 1    
    47   23   91 1    
    48   23   92 1    
    49   23   93 1    
    50   24   25 am   BACKBONE|DICT|INTERRES
    51   24   94 1    
    52   25   26 2    
    53   25   27 1    
    54   27   28 1    
    55   27   29 1    
    56   27   95 1    
    57   28   96 1    
    58   28   97 1    
    59   28   98 1    
    60   29   30 am   BACKBONE|DICT|INTERRES
    61   29   99 1    
    62   30   31 2    
    63   30   32 1    
    64   32   33 1    
    65   32   34 1    
    66   32  100 1    
    67   33  101 1    
    68   33  102 1    
    69   33  103 1    
    70   34   35 am   BACKBONE|DICT|INTERRES
    71   34  104 1    
    72   35   36 2    
    73   37   38 2    
    74   37   39 am   BACKBONE|DICT|INTERRES
    75   39   40 1    
    76   39  105 1    
    77   40   41 1    
    78   40   42 1    
    79   40  106 1    
    80   41  107 1    
    81   41  108 1    
    82   41  109 1    
    83   42   43 2    
    84   42   44 am   BACKBONE|DICT|INTERRES
    85   44   45 1    
    86   44  110 1    
    87   45   46 1    
    88   45   47 1    
    89   45  111 1    
    90   46  112 1    
    91   46  113 1    
    92   46  114 1    
    93   47   48 2    
    94   47   49 am   BACKBONE|DICT|INTERRES
    95   49   50 1    
    96   49  115 1    
    97   50   51 1    
    98   50   52 1    
    99   50  116 1    
   100   51  117 1    
   101   51  118 1    
   102   51  119 1    
   103   52   53 2    
   104   52   54 am   BACKBONE|DICT|INTERRES
   105   54   55 1    
   106   54  120 1    
   107   55   56 1    
   108   55   57 1    
   109   55  121 1    
   110   56  122 1    
   111   56  123 1    
   112   56  124 1    
   113   57   58 2    
   114   57   59 am   BACKBONE|DICT|INTERRES
   115   59   60 1    
   116   59  125 1    
   117   60   61 1    
   118   60   62 1    
   119   60  126 1    
   120   61  127 1    
   121   61  128 1    
   122   61  129 1    
   123   62   63 2    
   124   62   64 am   BACKBONE|DICT|INTERRES
   125   64   65 1    
   126   64  130 1    
   127   65   66 1    
   128   65   69 1    
   129   65  131 1    
   130   66   67 am   BACKBONE|DICT|INTERRES
   131   66   68 2    
   132   67  132 1    
   133   67  133 1    
   134   69   70 1    
   135   69  134 1    
   136   69  135 1    
   137   70   71 1    
   138   71  136 1    
   139   71  137 1    
@<TRIPOS>SUBSTRUCTURE
     1 UNK         1 GROUP             0       ****    0 ROOT    
