@<TRIPOS>MOLECULE
3R137
137   139    1
SMALL
USER_CHARGES


@<TRIPOS>ATOM
      1 CA         30.7995   -2.9848   -2.0312 C.3       0 UNK        -0.2020 
      2 C          29.7793   -2.2326   -1.1918 C.2       0 UNK         0.4855 
      3 O          29.5745   -2.5740   -0.0269 O.2       0 UNK        -0.5197 
      4 N          29.1241   -1.2215   -1.7777 N.am      1 UNK        -0.4892 
      5 CA         28.0768   -0.4167   -1.1290 C.3       1 UNK         0.0835 
      6 C6         27.8505    0.9334   -1.8543 C.3       12 UNK        -0.0855 
      7 S7         29.3061    2.0264   -1.7299 S.3       12 UNK        -0.2931 
      8 C8         29.7442    2.2870   -3.4773 C.3       12 UNK         0.0378 
      9 C9         30.2895    1.0263   -4.1310 C.ar      12 UNK        -0.0802 
     10 C10        31.5226    0.5029   -3.7287 C.ar      12 UNK        -0.0944 
     11 C11        32.0550   -0.6252   -4.3589 C.ar      12 UNK        -0.0787 
     12 C12        31.3459   -1.2270   -5.4021 C.ar      12 UNK        -0.0862 
     13 C13        30.1160   -0.7092   -5.8164 C.ar      12 UNK        -0.0733 
     14 C14        29.5876    0.4126   -5.1726 C.ar      12 UNK        -0.0832 
     15 C15        29.3929   -1.3291   -7.0001 C.3       12 UNK         0.0240 
     16 S16        28.5643   -2.8906   -6.5653 S.3       12 UNK        -0.2522 
     17 C17        26.9566   -2.3437   -5.8957 C.3       12 UNK        -0.0967 
     18 CA         25.7878   -2.6311   -6.8863 C.3       5 UNK         0.0660 
     19 N          24.6345   -3.2367   -6.2144 N.am      5 UNK        -0.4015 
     20 C          23.7346   -4.0263   -6.8220 C.2       4 UNK         0.4946 
     21 O          23.8130   -4.3530   -8.0081 O.2       4 UNK        -0.5353 
     22 CA         22.5629   -4.5836   -5.9883 C.3       4 UNK         0.0277 
     23 CB         22.7354   -6.0964   -5.7670 C.3       4 UNK        -0.1981 
     24 N          22.4098   -3.9353   -4.6864 N.am      4 UNK        -0.4209 
     25 C          21.8105   -2.7550   -4.4788 C.2       3 UNK         0.4942 
     26 O          21.2283   -2.1173   -5.3564 O.2       3 UNK        -0.5208 
     27 CA         21.8864   -2.1798   -3.0502 C.3       3 UNK         0.0250 
     28 CB         20.5822   -2.4631   -2.2868 C.3       3 UNK        -0.1990 
     29 N          23.0258   -2.6722   -2.2620 N.am      3 UNK        -0.4232 
     30 C          24.3127   -2.4758   -2.5797 C.2       2 UNK         0.4993 
     31 O          24.6824   -1.8838   -3.5959 O.2       2 UNK        -0.5286 
     32 CA         25.3594   -3.1180   -1.6588 C.3       2 UNK         0.0209 
     33 CB         25.6922   -4.5401   -2.1412 C.3       2 UNK        -0.1931 
     34 N          26.5879   -2.3247   -1.6394 N.am      2 UNK        -0.4546 
     35 C          26.7398   -1.1758   -0.9666 C.2       1 UNK         0.5154 
     36 O          25.8701   -0.7078   -0.2288 O.2       1 UNK        -0.5181 
     37 C          25.3659   -1.3641   -7.6578 C.2       5 UNK         0.5014 
     38 O          24.2919   -0.8060   -7.4142 O.2       5 UNK        -0.5248 
     39 N          26.2447   -0.9198   -8.5638 N.am      6 UNK        -0.4434 
     40 CA         26.1540    0.3606   -9.2688 C.3       6 UNK         0.0363 
     41 CB         27.2519    0.4026  -10.3468 C.3       6 UNK        -0.1936 
     42 C          26.2972    1.5653   -8.3174 C.2       6 UNK         0.5081 
     43 O          26.8049    1.4230   -7.2030 O.2       6 UNK        -0.5248 
     44 N          25.8783    2.7454   -8.7940 N.am      7 UNK        -0.4718 
     45 CA         26.0414    4.0198   -8.0835 C.3       7 UNK         0.0273 
     46 CB         25.1638    5.0918   -8.7499 C.3       7 UNK        -0.1935 
     47 C          27.5081    4.4865   -8.0149 C.2       7 UNK         0.5018 
     48 O          27.8820    5.1704   -7.0610 O.2       7 UNK        -0.5186 
     49 N          28.3059    4.1059   -9.0212 N.am      8 UNK        -0.4240 
     50 CA         29.7545    4.2921   -9.0537 C.3       8 UNK         0.0235 
     51 CB         30.2244    4.2978  -10.5177 C.3       8 UNK        -0.2000 
     52 C          30.4465    3.1612   -8.2801 C.2       8 UNK         0.4941 
     53 O          29.9524    2.0303   -8.2775 O.2       8 UNK        -0.5273 
     54 N          31.6086    3.4652   -7.6885 N.am      9 UNK        -0.4262 
     55 CA         32.4435    2.5266   -6.9323 C.3       9 UNK         0.0264 
     56 CB         33.3963    3.3183   -6.0185 C.3       9 UNK        -0.1955 
     57 C          33.1834    1.5265   -7.8424 C.2       9 UNK         0.5031 
     58 O          34.4158    1.5043   -7.8790 O.2       9 UNK        -0.5390 
     59 N          32.4140    0.7112   -8.5711 N.am      10 UNK        -0.4204 
     60 CA         32.8802   -0.3651   -9.4450 C.3       10 UNK         0.0237 
     61 CB         31.7926   -0.6541  -10.4971 C.3       10 UNK        -0.1985 
     62 C          33.2675   -1.6092   -8.6232 C.2       10 UNK         0.4970 
     63 O          32.6355   -2.6587   -8.7527 O.2       10 UNK        -0.4914 
     64 N          34.2767   -1.4516   -7.7595 N.am      11 UNK        -0.4285 
     65 CA         34.7509   -2.4730   -6.8123 C.3       11 UNK         0.1007 
     66 C          35.5343   -3.6550   -7.4544 C.2       11 UNK         0.5703 
     67 N          35.9381   -3.5812   -8.7173 N.am      11 UNK        -0.7361 
     68 O          35.7748   -4.6621   -6.7928 O.2       11 UNK        -0.4986 
     69 C69        35.5540   -1.8524   -5.6359 C.3       12 UNK        -0.0947 
     70 S70        34.7561   -0.4130   -4.8445 S.3       12 UNK        -0.2240 
     71 C71        33.3977   -1.1855   -3.9162 C.3       12 UNK         0.0194 
     72 H72        31.8071   -2.6542   -1.7826 H         1 UNK         0.0906 
     73 H73        30.7341   -4.0549   -1.8359 H         1 UNK         0.0906 
     74 H74        30.6348   -2.8316   -3.0971 H         1 UNK         0.0906 
     75 H75        29.3692   -0.9445   -2.7193 H         1 UNK         0.3140 
     76 H76        28.4125   -0.1940   -0.1134 H         1 UNK         0.1085 
     77 H77        27.0122    1.4752   -1.4113 H         1 UNK         0.0836 
     78 H78        27.5820    0.7699   -2.8997 H         1 UNK         0.0836 
     79 H79        30.5021    3.0695   -3.5368 H         1 UNK         0.0731 
     80 H80        28.8742    2.6661   -4.0166 H         1 UNK         0.0731 
     81 H81        32.0717    0.9822   -2.9295 H         1 UNK         0.1312 
     82 H82        31.7525   -2.0934   -5.9039 H         1 UNK         0.1406 
     83 H83        28.6471    0.8285   -5.5086 H         1 UNK         0.1631 
     84 H84        30.1192   -1.5349   -7.7868 H         1 UNK         0.0717 
     85 H85        28.6830   -0.6209   -7.4260 H         1 UNK         0.0717 
     86 H86        26.8158   -2.9001   -4.9683 H         1 UNK         0.0934 
     87 H87        27.0016   -1.2954   -5.5905 H         1 UNK         0.0934 
     88 H88        26.1311   -3.3534   -7.6307 H         1 UNK         0.0739 
     89 H89        24.4656   -2.9166   -5.2662 H         1 UNK         0.3093 
     90 H90        21.6503   -4.4266   -6.5676 H         1 UNK         0.0818 
     91 H91        22.8117   -6.6247   -6.7185 H         1 UNK         0.0819 
     92 H92        23.6376   -6.3220   -5.1969 H         1 UNK         0.0819 
     93 H93        21.8844   -6.5196   -5.2329 H         1 UNK         0.0819 
     94 H94        22.8403   -4.3942   -3.8974 H         1 UNK         0.3041 
     95 H95        21.9982   -1.0976   -3.1469 H         1 UNK         0.0784 
     96 H96        19.7186   -2.0829   -2.8347 H         1 UNK         0.0793 
     97 H97        20.4263   -3.5320   -2.1351 H         1 UNK         0.0793 
     98 H98        20.5801   -1.9798   -1.3096 H         1 UNK         0.0793 
     99 H99        22.8017   -3.1842   -1.4201 H         1 UNK         0.3024 
    100 H100       24.9590   -3.1704   -0.6434 H         1 UNK         0.1171 
    101 H101       26.4369   -5.0112   -1.4990 H         1 UNK         0.0786 
    102 H102       24.8073   -5.1776   -2.1266 H         1 UNK         0.0786 
    103 H103       26.0801   -4.5439   -3.1608 H         1 UNK         0.0786 
    104 H104       27.3404   -2.6234   -2.2411 H         1 UNK         0.2977 
    105 H105       27.1031   -1.4361   -8.6852 H         1 UNK         0.3127 
    106 H106       25.1757    0.4138   -9.7512 H         1 UNK         0.0770 
    107 H107       28.2503    0.3860   -9.9062 H         1 UNK         0.0814 
    108 H108       27.1798    1.3084  -10.9496 H         1 UNK         0.0814 
    109 H109       27.1720   -0.4425  -11.0308 H         1 UNK         0.0814 
    110 H110       25.4581    2.7845   -9.7121 H         1 UNK         0.2983 
    111 H111       25.6951    3.8837   -7.0562 H         1 UNK         0.0947 
    112 H112       25.4528    5.2652   -9.7872 H         1 UNK         0.0806 
    113 H113       25.2478    6.0447   -8.2251 H         1 UNK         0.0806 
    114 H114       24.1112    4.8086   -8.7359 H         1 UNK         0.0806 
    115 H115       27.9157    3.4978   -9.7247 H         1 UNK         0.3000 
    116 H116       30.0068    5.2511   -8.5955 H         1 UNK         0.0850 
    117 H117       31.3008    4.4620  -10.5831 H         1 UNK         0.0810 
    118 H118       29.7415    5.0928  -11.0863 H         1 UNK         0.0810 
    119 H119       30.0094    3.3508  -11.0153 H         1 UNK         0.0810 
    120 H120       31.9681    4.4046   -7.7813 H         1 UNK         0.3040 
    121 H121       31.7920    1.9359   -6.2883 H         1 UNK         0.0766 
    122 H122       32.8449    3.9570   -5.3284 H         1 UNK         0.0812 
    123 H123       34.0787    3.9471   -6.5915 H         1 UNK         0.0812 
    124 H124       34.0036    2.6428   -5.4141 H         1 UNK         0.0812 
    125 H125       31.4079    0.8471   -8.4922 H         1 UNK         0.3205 
    126 H126       33.7751   -0.0296   -9.9734 H         1 UNK         0.0754 
    127 H127       32.1108   -1.4407  -11.1825 H         1 UNK         0.0769 
    128 H128       31.5790    0.2306  -11.0974 H         1 UNK         0.0769 
    129 H129       30.8576   -0.9779  -10.0388 H         1 UNK         0.0769 
    130 H130       34.7011   -0.5333   -7.6830 H         1 UNK         0.2981 
    131 H131       33.8612   -2.9318   -6.3798 H         1 UNK         0.0541 
    132 H132       36.4408   -4.3554   -9.1216 H         1 UNK         0.3459 
    133 H133       35.7461   -2.7598   -9.2674 H         1 UNK         0.3459 
    134 H134       35.7490   -2.6017   -4.8663 H         1 UNK         0.0612 
    135 H135       36.5325   -1.5213   -5.9883 H         1 UNK         0.0612 
    136 H136       33.4120   -2.2691   -4.0401 H         1 UNK         0.0624 
    137 H137       33.5496   -0.9996   -2.8520 H         1 UNK         0.0624 
@<TRIPOS>BOND
     1    1    2 1    
     2    1   72 1    
     3    1   73 1    
     4    1   74 1    
     5    2    3 2    
     6    2    4 am   BACKBONE|DICT|INTERRES
     7    4    5 1    
     8    4   75 1    
     9    5    6 1    
    10    5   35 1    
    11    5   76 1    
    12    6    7 1    
    13    6   77 1    
    14    6   78 1    
    15    7    8 1    
    16    8    9 1    
    17    8   79 1    
    18    8   80 1    
    19    9   10 ar   
    20    9   14 ar   
    21   10   11 ar   
    22   10   81 1    
    23   11   12 ar   
    24   11   71 1    
    25   12   13 ar   
    26   12   82 1    
    27   13   14 ar   
    28   13   15 1    
    29   14   83 1    
    30   15   16 1    
    31   15   84 1    
    32   15   85 1    
    33   16   17 1    
    34   17   18 1    
    35   17   86 1    
    36   17   87 1    
    37   18   19 1    
    38   18   37 1    
    39   18   88 1    
    40   19   20 am   BACKBONE|DICT|INTERRES
    41   19   89 1    
    42   20   21 2    
    43   20   22 1    
    44   22   23 1    
    45   22   24 1    
    46   22   90 1    
    47   23   91 1    
    48   23   92 1    
    49   23   93 1    
    50   24   25 am   BACKBONE|DICT|INTERRES
    51   24   94 1    
    52   25   26 2    
    53   25   27 1    
    54   27   28 1    
    55   27   29 1    
    56   27   95 1    
    57   28   96 1    
    58   28   97 1    
    59   28   98 1    
    60   29   30 am   BACKBONE|DICT|INTERRES
    61   29   99 1    
    62   30   31 2    
    63   30   32 1    
    64   32   33 1    
    65   32   34 1    
    66   32  100 1    
    67   33  101 1    
    68   33  102 1    
    69   33  103 1    
    70   34   35 am   BACKBONE|DICT|INTERRES
    71   34  104 1    
    72   35   36 2    
    73   37   38 2    
    74   37   39 am   BACKBONE|DICT|INTERRES
    75   39   40 1    
    76   39  105 1    
    77   40   41 1    
    78   40   42 1    
    79   40  106 1    
    80   41  107 1    
    81   41  108 1    
    82   41  109 1    
    83   42   43 2    
    84   42   44 am   BACKBONE|DICT|INTERRES
    85   44   45 1    
    86   44  110 1    
    87   45   46 1    
    88   45   47 1    
    89   45  111 1    
    90   46  112 1    
    91   46  113 1    
    92   46  114 1    
    93   47   48 2    
    94   47   49 am   BACKBONE|DICT|INTERRES
    95   49   50 1    
    96   49  115 1    
    97   50   51 1    
    98   50   52 1    
    99   50  116 1    
   100   51  117 1    
   101   51  118 1    
   102   51  119 1    
   103   52   53 2    
   104   52   54 am   BACKBONE|DICT|INTERRES
   105   54   55 1    
   106   54  120 1    
   107   55   56 1    
   108   55   57 1    
   109   55  121 1    
   110   56  122 1    
   111   56  123 1    
   112   56  124 1    
   113   57   58 2    
   114   57   59 am   BACKBONE|DICT|INTERRES
   115   59   60 1    
   116   59  125 1    
   117   60   61 1    
   118   60   62 1    
   119   60  126 1    
   120   61  127 1    
   121   61  128 1    
   122   61  129 1    
   123   62   63 2    
   124   62   64 am   BACKBONE|DICT|INTERRES
   125   64   65 1    
   126   64  130 1    
   127   65   66 1    
   128   65   69 1    
   129   65  131 1    
   130   66   67 am   BACKBONE|DICT|INTERRES
   131   66   68 2    
   132   67  132 1    
   133   67  133 1    
   134   69   70 1    
   135   69  134 1    
   136   69  135 1    
   137   70   71 1    
   138   71  136 1    
   139   71  137 1    
@<TRIPOS>SUBSTRUCTURE
     1 UNK         1 GROUP             0       ****    0 ROOT    
