@<TRIPOS>MOLECULE
3R137
137   139    1
SMALL
USER_CHARGES


@<TRIPOS>ATOM
      1 CA         23.0891   -5.4115   -3.1815 C.3       0 UNK        -0.2020 
      2 C          23.7957   -4.5471   -2.1489 C.2       0 UNK         0.4855 
      3 O          23.1942   -3.6160   -1.6123 O.2       0 UNK        -0.5197 
      4 N          25.0713   -4.8494   -1.8776 N.am      1 UNK        -0.4892 
      5 CA         25.9779   -4.1480   -0.9602 C.3       1 UNK         0.0835 
      6 C6         27.3629   -4.8570   -0.8538 C.3       12 UNK        -0.0855 
      7 S7         27.9768   -5.6298   -2.4021 S.3       12 UNK        -0.2931 
      8 C8         29.7803   -5.3965   -2.2999 C.3       12 UNK         0.0378 
      9 C9         30.2358   -4.1097   -2.9749 C.ar      12 UNK        -0.0802 
     10 C10        30.6950   -4.1218   -4.2977 C.ar      12 UNK        -0.0944 
     11 C11        31.1549   -2.9494   -4.9115 C.ar      12 UNK        -0.0787 
     12 C12        31.1163   -1.7496   -4.1873 C.ar      12 UNK        -0.0862 
     13 C13        30.6658   -1.7254   -2.8664 C.ar      12 UNK        -0.0733 
     14 C14        30.2339   -2.9089   -2.2641 C.ar      12 UNK        -0.0832 
     15 C15        30.6662   -0.4293   -2.0730 C.3       12 UNK         0.0240 
     16 S16        28.9764    0.0604   -1.6278 S.3       12 UNK        -0.2522 
     17 C17        28.5396    1.2565   -2.9273 C.3       12 UNK        -0.0967 
     18 CA         28.3989    0.7058   -4.3739 C.3       5 UNK         0.0660 
     19 N          27.5850   -0.5133   -4.5011 N.am      5 UNK        -0.4015 
     20 C          27.3377   -1.1405   -5.6663 C.2       4 UNK         0.4946 
     21 O          27.8303   -0.8104   -6.7431 O.2       4 UNK        -0.5353 
     22 CA         26.3072   -2.2770   -5.6678 C.3       4 UNK         0.0277 
     23 CB         26.9574   -3.6139   -5.2846 C.3       4 UNK        -0.1981 
     24 N          25.1754   -1.9695   -4.7932 N.am      4 UNK        -0.4209 
     25 C          24.2380   -1.0538   -5.0865 C.2       3 UNK         0.4942 
     26 O          24.1927   -0.4444   -6.1540 O.2       3 UNK        -0.5208 
     27 CA         23.2037   -0.7183   -3.9991 C.3       3 UNK         0.0250 
     28 CB         21.9526   -1.5983   -4.1394 C.3       3 UNK        -0.1990 
     29 N          23.7547   -0.8372   -2.6483 N.am      3 UNK        -0.4232 
     30 C          24.6761    0.0015   -2.1505 C.2       2 UNK         0.4993 
     31 O          25.0922    0.9917   -2.7552 O.2       2 UNK        -0.5286 
     32 CA         25.2726   -0.3509   -0.7754 C.3       2 UNK         0.0209 
     33 CB         24.4393    0.2836    0.3490 C.3       2 UNK        -0.1931 
     34 N          25.4003   -1.7945   -0.5350 N.am      2 UNK        -0.4546 
     35 C          26.0887   -2.6483   -1.3085 C.2       1 UNK         0.5154 
     36 O          26.7219   -2.2961   -2.3018 O.2       1 UNK        -0.5181 
     37 C          27.8664    1.8319   -5.2812 C.2       5 UNK         0.5014 
     38 O          28.6349    2.4097   -6.0507 O.2       5 UNK        -0.5248 
     39 N          26.5552    2.0986   -5.1805 N.am      6 UNK        -0.4434 
     40 CA         25.8460    3.1041   -5.9713 C.3       6 UNK         0.0363 
     41 CB         24.4091    3.2468   -5.4442 C.3       6 UNK        -0.1936 
     42 C          25.8446    2.8057   -7.4805 C.2       6 UNK         0.5081 
     43 O          26.0438    3.7262   -8.2738 O.2       6 UNK        -0.5248 
     44 N          25.6103    1.5395   -7.8514 N.am      7 UNK        -0.4718 
     45 CA         25.5515    1.0930   -9.2433 C.3       7 UNK         0.0273 
     46 CB         24.8620   -0.2789   -9.3204 C.3       7 UNK        -0.1935 
     47 C          26.9269    1.0428   -9.9258 C.2       7 UNK         0.5018 
     48 O          27.0549    1.5319  -11.0494 O.2       7 UNK        -0.5186 
     49 N          27.9146    0.4230   -9.2657 N.am      8 UNK        -0.4240 
     50 CA         29.2299    0.1553   -9.8478 C.3       8 UNK         0.0235 
     51 CB         29.8595   -1.0678   -9.1637 C.3       8 UNK        -0.2000 
     52 C          30.1820    1.3550   -9.7714 C.2       8 UNK         0.4941 
     53 O          30.9545    1.5496  -10.7103 O.2       8 UNK        -0.5273 
     54 N          30.1285    2.1206   -8.6684 N.am      9 UNK        -0.4262 
     55 CA         31.0507    3.2049   -8.3088 C.3       9 UNK         0.0264 
     56 CB         30.8881    4.4181   -9.2529 C.3       9 UNK        -0.1955 
     57 C          32.4961    2.6826   -8.1924 C.2       9 UNK         0.5031 
     58 O          32.8380    2.0868   -7.1698 O.2       9 UNK        -0.5390 
     59 N          33.3076    2.8836   -9.2381 N.am      10 UNK        -0.4204 
     60 CA         34.6312    2.2839   -9.3941 C.3       10 UNK         0.0237 
     61 CB         35.4869    3.1823  -10.3062 C.3       10 UNK        -0.1985 
     62 C          34.4683    0.8630   -9.9603 C.2       10 UNK         0.4970 
     63 O          34.4371    0.6939  -11.1809 O.2       10 UNK        -0.4914 
     64 N          34.3111   -0.1128   -9.0577 N.am      11 UNK        -0.4285 
     65 CA         34.0567   -1.5344   -9.3457 C.3       11 UNK         0.1007 
     66 C          35.1196   -2.1866  -10.2738 C.2       11 UNK         0.5703 
     67 N          34.7026   -3.0613  -11.1796 N.am      11 UNK        -0.7361 
     68 O          36.3184   -1.9429  -10.1452 O.2       11 UNK        -0.4986 
     69 C69        33.9134   -2.3664   -8.0416 C.3       12 UNK        -0.0947 
     70 S70        32.7744   -1.6271   -6.8226 S.3       12 UNK        -0.2240 
     71 C71        31.6971   -3.0261   -6.3430 C.3       12 UNK         0.0194 
     72 H72        22.0581   -5.5944   -2.8797 H         1 UNK         0.0906 
     73 H73        23.0793   -4.9121   -4.1497 H         1 UNK         0.0906 
     74 H74        23.5800   -6.3772   -3.3012 H         1 UNK         0.0906 
     75 H75        25.5180   -5.6010   -2.3860 H         1 UNK         0.3140 
     76 H76        25.5190   -4.2082    0.0290 H         1 UNK         0.1085 
     77 H77        27.2857   -5.6621   -0.1214 H         1 UNK         0.0836 
     78 H78        28.1161   -4.1805   -0.4478 H         1 UNK         0.0836 
     79 H79        30.2645   -6.2504   -2.7761 H         1 UNK         0.0731 
     80 H80        30.1020   -5.4155   -1.2575 H         1 UNK         0.0731 
     81 H81        30.7098   -5.0534   -4.8468 H         1 UNK         0.1312 
     82 H82        31.4500   -0.8264   -4.6375 H         1 UNK         0.1406 
     83 H83        29.8887   -2.8874   -1.2402 H         1 UNK         0.1631 
     84 H84        31.1601    0.3760   -2.6188 H         1 UNK         0.0717 
     85 H85        31.2406   -0.5769   -1.1575 H         1 UNK         0.0717 
     86 H86        27.6091    1.7243   -2.6017 H         1 UNK         0.0934 
     87 H87        29.2844    2.0548   -2.9070 H         1 UNK         0.0934 
     88 H88        29.3954    0.4505   -4.7360 H         1 UNK         0.0739 
     89 H89        27.2100   -0.9093   -3.6437 H         1 UNK         0.3093 
     90 H90        25.9225   -2.3800   -6.6847 H         1 UNK         0.0818 
     91 H91        27.5160   -3.5398   -4.3530 H         1 UNK         0.0819 
     92 H92        26.2194   -4.4086   -5.1767 H         1 UNK         0.0819 
     93 H93        27.6679   -3.9275   -6.0502 H         1 UNK         0.0819 
     94 H94        25.2168   -2.3515   -3.8573 H         1 UNK         0.3041 
     95 H95        22.8992    0.3202   -4.1468 H         1 UNK         0.0784 
     96 H96        21.4995   -1.4738   -5.1239 H         1 UNK         0.0793 
     97 H97        22.1834   -2.6559   -4.0203 H         1 UNK         0.0793 
     98 H98        21.1970   -1.3348   -3.3992 H         1 UNK         0.0793 
     99 H99        23.4867   -1.6551   -2.1081 H         1 UNK         0.3024 
    100 H100       26.2731    0.0803   -0.7389 H         1 UNK         0.1171 
    101 H101       24.9045    0.1304    1.3230 H         1 UNK         0.0786 
    102 H102       24.3450    1.3608    0.2035 H         1 UNK         0.0786 
    103 H103       23.4307   -0.1300    0.3879 H         1 UNK         0.0786 
    104 H104       24.8585   -2.1690    0.2308 H         1 UNK         0.2977 
    105 H105       26.0094    1.5915   -4.4894 H         1 UNK         0.3127 
    106 H106       26.3584    4.0573   -5.8246 H         1 UNK         0.0770 
    107 H107       23.8482    2.3170   -5.5453 H         1 UNK         0.0814 
    108 H108       23.8666    4.0171   -5.9939 H         1 UNK         0.0814 
    109 H109       24.3984    3.5300   -4.3915 H         1 UNK         0.0814 
    110 H110       25.3972    0.8469   -7.1397 H         1 UNK         0.2983 
    111 H111       24.9367    1.8047   -9.7992 H         1 UNK         0.0947 
    112 H112       24.8008   -0.6297  -10.3515 H         1 UNK         0.0806 
    113 H113       23.8438   -0.2320   -8.9335 H         1 UNK         0.0806 
    114 H114       25.4013   -1.0347   -8.7485 H         1 UNK         0.0806 
    115 H115       27.7446    0.0464   -8.3327 H         1 UNK         0.3000 
    116 H116       29.0962   -0.0932  -10.9033 H         1 UNK         0.0850 
    117 H117       30.7897   -1.3512   -9.6548 H         1 UNK         0.0810 
    118 H118       29.1963   -1.9321   -9.1992 H         1 UNK         0.0810 
    119 H119       30.0920   -0.8668   -8.1173 H         1 UNK         0.0810 
    120 H120       29.4602    1.8805   -7.9433 H         1 UNK         0.3040 
    121 H121       30.7651    3.5332   -7.3085 H         1 UNK         0.0766 
    122 H122       29.8775    4.8221   -9.1900 H         1 UNK         0.0812 
    123 H123       31.0740    4.1706  -10.2980 H         1 UNK         0.0812 
    124 H124       31.5715    5.2223   -8.9771 H         1 UNK         0.0812 
    125 H125       32.9047    3.2993  -10.0660 H         1 UNK         0.3205 
    126 H126       35.1279    2.2220   -8.4231 H         1 UNK         0.0754 
    127 H127       36.4752    2.7478  -10.4626 H         1 UNK         0.0769 
    128 H128       35.6327    4.1682   -9.8644 H         1 UNK         0.0769 
    129 H129       35.0320    3.3207  -11.2880 H         1 UNK         0.0769 
    130 H130       34.2943    0.1365   -8.0787 H         1 UNK         0.2981 
    131 H131       33.1010   -1.5651   -9.8699 H         1 UNK         0.0541 
    132 H132       33.7241   -3.2797  -11.2842 H         1 UNK         0.3459 
    133 H133       35.3810   -3.5063  -11.7779 H         1 UNK         0.3459 
    134 H134       33.5765   -3.3759   -8.2832 H         1 UNK         0.0612 
    135 H135       34.8825   -2.4781   -7.5514 H         1 UNK         0.0612 
    136 H136       32.2622   -3.9532   -6.4491 H         1 UNK         0.0624 
    137 H137       30.8607   -3.0851   -7.0402 H         1 UNK         0.0624 
@<TRIPOS>BOND
     1    1    2 1    
     2    1   72 1    
     3    1   73 1    
     4    1   74 1    
     5    2    3 2    
     6    2    4 am   BACKBONE|DICT|INTERRES
     7    4    5 1    
     8    4   75 1    
     9    5    6 1    
    10    5   35 1    
    11    5   76 1    
    12    6    7 1    
    13    6   77 1    
    14    6   78 1    
    15    7    8 1    
    16    8    9 1    
    17    8   79 1    
    18    8   80 1    
    19    9   10 ar   
    20    9   14 ar   
    21   10   11 ar   
    22   10   81 1    
    23   11   12 ar   
    24   11   71 1    
    25   12   13 ar   
    26   12   82 1    
    27   13   14 ar   
    28   13   15 1    
    29   14   83 1    
    30   15   16 1    
    31   15   84 1    
    32   15   85 1    
    33   16   17 1    
    34   17   18 1    
    35   17   86 1    
    36   17   87 1    
    37   18   19 1    
    38   18   37 1    
    39   18   88 1    
    40   19   20 am   BACKBONE|DICT|INTERRES
    41   19   89 1    
    42   20   21 2    
    43   20   22 1    
    44   22   23 1    
    45   22   24 1    
    46   22   90 1    
    47   23   91 1    
    48   23   92 1    
    49   23   93 1    
    50   24   25 am   BACKBONE|DICT|INTERRES
    51   24   94 1    
    52   25   26 2    
    53   25   27 1    
    54   27   28 1    
    55   27   29 1    
    56   27   95 1    
    57   28   96 1    
    58   28   97 1    
    59   28   98 1    
    60   29   30 am   BACKBONE|DICT|INTERRES
    61   29   99 1    
    62   30   31 2    
    63   30   32 1    
    64   32   33 1    
    65   32   34 1    
    66   32  100 1    
    67   33  101 1    
    68   33  102 1    
    69   33  103 1    
    70   34   35 am   BACKBONE|DICT|INTERRES
    71   34  104 1    
    72   35   36 2    
    73   37   38 2    
    74   37   39 am   BACKBONE|DICT|INTERRES
    75   39   40 1    
    76   39  105 1    
    77   40   41 1    
    78   40   42 1    
    79   40  106 1    
    80   41  107 1    
    81   41  108 1    
    82   41  109 1    
    83   42   43 2    
    84   42   44 am   BACKBONE|DICT|INTERRES
    85   44   45 1    
    86   44  110 1    
    87   45   46 1    
    88   45   47 1    
    89   45  111 1    
    90   46  112 1    
    91   46  113 1    
    92   46  114 1    
    93   47   48 2    
    94   47   49 am   BACKBONE|DICT|INTERRES
    95   49   50 1    
    96   49  115 1    
    97   50   51 1    
    98   50   52 1    
    99   50  116 1    
   100   51  117 1    
   101   51  118 1    
   102   51  119 1    
   103   52   53 2    
   104   52   54 am   BACKBONE|DICT|INTERRES
   105   54   55 1    
   106   54  120 1    
   107   55   56 1    
   108   55   57 1    
   109   55  121 1    
   110   56  122 1    
   111   56  123 1    
   112   56  124 1    
   113   57   58 2    
   114   57   59 am   BACKBONE|DICT|INTERRES
   115   59   60 1    
   116   59  125 1    
   117   60   61 1    
   118   60   62 1    
   119   60  126 1    
   120   61  127 1    
   121   61  128 1    
   122   61  129 1    
   123   62   63 2    
   124   62   64 am   BACKBONE|DICT|INTERRES
   125   64   65 1    
   126   64  130 1    
   127   65   66 1    
   128   65   69 1    
   129   65  131 1    
   130   66   67 am   BACKBONE|DICT|INTERRES
   131   66   68 2    
   132   67  132 1    
   133   67  133 1    
   134   69   70 1    
   135   69  134 1    
   136   69  135 1    
   137   70   71 1    
   138   71  136 1    
   139   71  137 1    
@<TRIPOS>SUBSTRUCTURE
     1 UNK         1 GROUP             0       ****    0 ROOT    
