@<TRIPOS>MOLECULE
3R137
137   139    1
SMALL
USER_CHARGES


@<TRIPOS>ATOM
      1 CA         31.2486    1.0645   -0.7742 C.3       0 UNK        -0.2020 
      2 C          30.2629    0.1557   -1.4925 C.2       0 UNK         0.4855 
      3 O          29.5243    0.6262   -2.3559 O.2       0 UNK        -0.5197 
      4 N          30.2639   -1.1385   -1.1550 N.am      1 UNK        -0.4892 
      5 CA         29.3793   -2.1709   -1.7113 C.3       1 UNK         0.0835 
      6 C6         29.8864   -3.5915   -1.3492 C.3       12 UNK        -0.0855 
      7 S7         31.6036   -3.8936   -1.8929 S.3       12 UNK        -0.2931 
      8 C8         31.3822   -5.1684   -3.1738 C.3       12 UNK         0.0378 
      9 C9         30.6512   -4.6356   -4.3979 C.ar      12 UNK        -0.0802 
     10 C10        31.2697   -3.6988   -5.2298 C.ar      12 UNK        -0.0944 
     11 C11        30.6158   -3.2157   -6.3668 C.ar      12 UNK        -0.0787 
     12 C12        29.3397   -3.6924   -6.6816 C.ar      12 UNK        -0.0862 
     13 C13        28.7159   -4.6401   -5.8639 C.ar      12 UNK        -0.0733 
     14 C14        29.3722   -5.0999   -4.7177 C.ar      12 UNK        -0.0832 
     15 C15        27.3482   -5.1962   -6.2283 C.3       12 UNK         0.0240 
     16 S16        26.0114   -4.0550   -5.7670 S.3       12 UNK        -0.2522 
     17 C17        25.6318   -3.2621   -7.3702 C.3       12 UNK        -0.0967 
     18 CA         25.2023   -1.7768   -7.2561 C.3       5 UNK         0.0660 
     19 N          24.0922   -1.5939   -6.3122 N.am      5 UNK        -0.4015 
     20 C          22.7994   -1.5341   -6.6627 C.2       4 UNK         0.4946 
     21 O          22.4102   -1.5289   -7.8320 O.2       4 UNK        -0.5353 
     22 CA         21.7402   -1.5016   -5.5421 C.3       4 UNK         0.0277 
     23 CB         21.1120   -2.8944   -5.3669 C.3       4 UNK        -0.1981 
     24 N          22.2474   -1.0470   -4.2470 N.am      4 UNK        -0.4209 
     25 C          22.6128    0.2099   -3.9627 C.2       3 UNK         0.4942 
     26 O          22.4992    1.1494   -4.7501 O.2       3 UNK        -0.5208 
     27 CA         23.2374    0.4630   -2.5758 C.3       3 UNK         0.0250 
     28 CB         22.1762    1.0096   -1.6069 C.3       3 UNK        -0.1990 
     29 N          23.9081   -0.6904   -1.9545 N.am      3 UNK        -0.4232 
     30 C          24.8818   -1.4226   -2.5134 C.2       2 UNK         0.4993 
     31 O          25.2352   -1.3049   -3.6872 O.2       2 UNK        -0.5286 
     32 CA         25.5368   -2.4980   -1.6422 C.3       2 UNK         0.0209 
     33 CB         24.8964   -3.8687   -1.9153 C.3       2 UNK        -0.1931 
     34 N          26.9659   -2.5648   -1.9547 N.am      2 UNK        -0.4546 
     35 C          27.9261   -1.9943   -1.2161 C.2       1 UNK         0.5154 
     36 O          27.7039   -1.4035   -0.1546 O.2       1 UNK        -0.5181 
     37 C          26.3882   -0.8243   -7.0023 C.2       5 UNK         0.5014 
     38 O          27.3523   -0.8698   -7.7709 O.2       5 UNK        -0.5248 
     39 N          26.2938    0.0456   -5.9841 N.am      6 UNK        -0.4434 
     40 CA         27.2737    1.0500   -5.5467 C.3       6 UNK         0.0363 
     41 CB         26.8355    1.5873   -4.1704 C.3       6 UNK        -0.1936 
     42 C          27.5362    2.1877   -6.5609 C.2       6 UNK         0.5081 
     43 O          27.4801    3.3671   -6.2077 O.2       6 UNK        -0.5248 
     44 N          27.8192    1.8033   -7.8048 N.am      7 UNK        -0.4718 
     45 CA         28.1724    2.6458   -8.9456 C.3       7 UNK         0.0273 
     46 CB         26.9288    3.4077   -9.4478 C.3       7 UNK        -0.1935 
     47 C          28.8137    1.8373  -10.0908 C.2       7 UNK         0.5018 
     48 O          29.2479    2.4479  -11.0684 O.2       7 UNK        -0.5186 
     49 N          28.8485    0.4965   -9.9922 N.am      8 UNK        -0.4240 
     50 CA         29.3303   -0.4054  -11.0437 C.3       8 UNK         0.0235 
     51 CB         28.8710   -1.8357  -10.7139 C.3       8 UNK        -0.2000 
     52 C          30.8524   -0.3680  -11.2809 C.2       8 UNK         0.4941 
     53 O          31.2962   -0.7766  -12.3552 O.2       8 UNK        -0.5273 
     54 N          31.6219    0.1046  -10.2943 N.am      9 UNK        -0.4262 
     55 CA         33.0761    0.2462  -10.3408 C.3       9 UNK         0.0264 
     56 CB         33.7603   -1.1203  -10.1057 C.3       9 UNK        -0.1955 
     57 C          33.4868    1.3455   -9.3479 C.2       9 UNK         0.5031 
     58 O          32.8232    2.3817   -9.2952 O.2       9 UNK        -0.5390 
     59 N          34.5484    1.1067   -8.5638 N.am      10 UNK        -0.4204 
     60 CA         35.0447    2.0007   -7.5070 C.3       10 UNK         0.0237 
     61 CB         36.4514    1.5411   -7.0872 C.3       10 UNK        -0.1985 
     62 C          34.1183    2.1019   -6.2759 C.2       10 UNK         0.4970 
     63 O          34.3192    2.9868   -5.4428 O.2       10 UNK        -0.4914 
     64 N          33.1398    1.1949   -6.1796 N.am      11 UNK        -0.4285 
     65 CA         32.0359    1.1891   -5.2123 C.3       11 UNK         0.1007 
     66 C          31.1077    2.4381   -5.2910 C.2       11 UNK         0.5703 
     67 N          30.2377    2.6248   -4.3090 N.am      11 UNK        -0.7361 
     68 O          31.1493    3.2299   -6.2305 O.2       11 UNK        -0.4986 
     69 C69        31.2474   -0.1437   -5.3101 C.3       12 UNK        -0.0947 
     70 S70        30.6353   -0.5179   -6.9916 S.3       12 UNK        -0.2240 
     71 C71        31.2949   -2.1905   -7.2622 C.3       12 UNK         0.0194 
     72 H72        31.9253    1.5268   -1.4924 H         1 UNK         0.0906 
     73 H73        30.7134    1.8568   -0.2517 H         1 UNK         0.0906 
     74 H74        31.8482    0.5212   -0.0441 H         1 UNK         0.0906 
     75 H75        30.8952   -1.4621   -0.4366 H         1 UNK         0.3140 
     76 H76        29.3808   -2.0627   -2.7991 H         1 UNK         0.1085 
     77 H77        29.2345   -4.3539   -1.7794 H         1 UNK         0.0836 
     78 H78        29.8494   -3.7454   -0.2687 H         1 UNK         0.0836 
     79 H79        32.3642   -5.5332   -3.4785 H         1 UNK         0.0731 
     80 H80        30.8602   -6.0252   -2.7446 H         1 UNK         0.0731 
     81 H81        32.2614   -3.3439   -4.9846 H         1 UNK         0.1312 
     82 H82        28.8332   -3.3214   -7.5617 H         1 UNK         0.1406 
     83 H83        28.8930   -5.8342   -4.0843 H         1 UNK         0.1631 
     84 H84        27.1796   -6.1438   -5.7145 H         1 UNK         0.0717 
     85 H85        27.3074   -5.4271   -7.2937 H         1 UNK         0.0717 
     86 H86        26.4777   -3.3627   -8.0522 H         1 UNK         0.0934 
     87 H87        24.8236   -3.8324   -7.8305 H         1 UNK         0.0934 
     88 H88        24.8602   -1.4786   -8.2492 H         1 UNK         0.0739 
     89 H89        24.3468   -1.6199   -5.3271 H         1 UNK         0.3093 
     90 H90        20.9559   -0.8103   -5.8581 H         1 UNK         0.0818 
     91 H91        20.3036   -2.8777   -4.6357 H         1 UNK         0.0819 
     92 H92        20.6882   -3.2527   -6.3062 H         1 UNK         0.0819 
     93 H93        21.8477   -3.6310   -5.0406 H         1 UNK         0.0819 
     94 H94        22.3802   -1.7513   -3.5363 H         1 UNK         0.3041 
     95 H95        23.9984    1.2338   -2.7113 H         1 UNK         0.0784 
     96 H96        21.6768    1.8847   -2.0258 H         1 UNK         0.0793 
     97 H97        21.4063    0.2675   -1.3914 H         1 UNK         0.0793 
     98 H98        22.6215    1.3180   -0.6607 H         1 UNK         0.0793 
     99 H99        23.6567   -0.8800   -0.9945 H         1 UNK         0.3024 
    100 H100       25.3867   -2.2486   -0.5892 H         1 UNK         0.1171 
    101 H101       23.8338   -3.8609   -1.6689 H         1 UNK         0.0786 
    102 H102       25.3619   -4.6492   -1.3133 H         1 UNK         0.0786 
    103 H103       24.9853   -4.1580   -2.9627 H         1 UNK         0.0786 
    104 H104       27.2000   -2.9722   -2.8497 H         1 UNK         0.2977 
    105 H105       25.4956   -0.0549   -5.3720 H         1 UNK         0.3127 
    106 H106       28.2253    0.5351   -5.4086 H         1 UNK         0.0770 
    107 H107       25.8447    2.0402   -4.2128 H         1 UNK         0.0814 
    108 H108       27.5242    2.3452   -3.7980 H         1 UNK         0.0814 
    109 H109       26.8188    0.7945   -3.4235 H         1 UNK         0.0814 
    110 H110       27.7857    0.7982   -7.9580 H         1 UNK         0.2983 
    111 H111       28.9211    3.3676   -8.6117 H         1 UNK         0.0947 
    112 H112       27.1712    4.0348  -10.3067 H         1 UNK         0.0806 
    113 H113       26.5223    4.0654   -8.6797 H         1 UNK         0.0806 
    114 H114       26.1380    2.7227   -9.7554 H         1 UNK         0.0806 
    115 H115       28.4719    0.0352   -9.1725 H         1 UNK         0.3000 
    116 H116       28.8561   -0.1065  -11.9810 H         1 UNK         0.0850 
    117 H117       29.1991   -2.5413  -11.4784 H         1 UNK         0.0810 
    118 H118       27.7840   -1.9000  -10.6591 H         1 UNK         0.0810 
    119 H119       29.2714   -2.1765   -9.7594 H         1 UNK         0.0810 
    120 H120       31.1720    0.4795   -9.4692 H         1 UNK         0.3040 
    121 H121       33.3574    0.6080  -11.3320 H         1 UNK         0.0766 
    122 H122       33.5610   -1.5114   -9.1084 H         1 UNK         0.0812 
    123 H123       33.4123   -1.8642  -10.8226 H         1 UNK         0.0812 
    124 H124       34.8414   -1.0525  -10.2325 H         1 UNK         0.0812 
    125 H125       35.0416    0.2330   -8.6818 H         1 UNK         0.3205 
    126 H126       35.1249    3.0052   -7.9278 H         1 UNK         0.0754 
    127 H127       36.8716    2.2068   -6.3317 H         1 UNK         0.0769 
    128 H128       37.1392    1.5424   -7.9331 H         1 UNK         0.0769 
    129 H129       36.4387    0.5358   -6.6639 H         1 UNK         0.0769 
    130 H130       33.0475    0.5259   -6.9267 H         1 UNK         0.2981 
    131 H131       32.4975    1.2264   -4.2240 H         1 UNK         0.0541 
    132 H132       29.6235    3.4213   -4.3630 H         1 UNK         0.3459 
    133 H133       30.1074    1.9376   -3.5712 H         1 UNK         0.3459 
    134 H134       30.3969   -0.1597   -4.6306 H         1 UNK         0.0612 
    135 H135       31.8952   -0.9523   -4.9729 H         1 UNK         0.0612 
    136 H136       32.3727   -2.1855   -7.0945 H         1 UNK         0.0624 
    137 H137       31.1503   -2.4650   -8.3074 H         1 UNK         0.0624 
@<TRIPOS>BOND
     1    1    2 1    
     2    1   72 1    
     3    1   73 1    
     4    1   74 1    
     5    2    3 2    
     6    2    4 am   BACKBONE|DICT|INTERRES
     7    4    5 1    
     8    4   75 1    
     9    5    6 1    
    10    5   35 1    
    11    5   76 1    
    12    6    7 1    
    13    6   77 1    
    14    6   78 1    
    15    7    8 1    
    16    8    9 1    
    17    8   79 1    
    18    8   80 1    
    19    9   10 ar   
    20    9   14 ar   
    21   10   11 ar   
    22   10   81 1    
    23   11   12 ar   
    24   11   71 1    
    25   12   13 ar   
    26   12   82 1    
    27   13   14 ar   
    28   13   15 1    
    29   14   83 1    
    30   15   16 1    
    31   15   84 1    
    32   15   85 1    
    33   16   17 1    
    34   17   18 1    
    35   17   86 1    
    36   17   87 1    
    37   18   19 1    
    38   18   37 1    
    39   18   88 1    
    40   19   20 am   BACKBONE|DICT|INTERRES
    41   19   89 1    
    42   20   21 2    
    43   20   22 1    
    44   22   23 1    
    45   22   24 1    
    46   22   90 1    
    47   23   91 1    
    48   23   92 1    
    49   23   93 1    
    50   24   25 am   BACKBONE|DICT|INTERRES
    51   24   94 1    
    52   25   26 2    
    53   25   27 1    
    54   27   28 1    
    55   27   29 1    
    56   27   95 1    
    57   28   96 1    
    58   28   97 1    
    59   28   98 1    
    60   29   30 am   BACKBONE|DICT|INTERRES
    61   29   99 1    
    62   30   31 2    
    63   30   32 1    
    64   32   33 1    
    65   32   34 1    
    66   32  100 1    
    67   33  101 1    
    68   33  102 1    
    69   33  103 1    
    70   34   35 am   BACKBONE|DICT|INTERRES
    71   34  104 1    
    72   35   36 2    
    73   37   38 2    
    74   37   39 am   BACKBONE|DICT|INTERRES
    75   39   40 1    
    76   39  105 1    
    77   40   41 1    
    78   40   42 1    
    79   40  106 1    
    80   41  107 1    
    81   41  108 1    
    82   41  109 1    
    83   42   43 2    
    84   42   44 am   BACKBONE|DICT|INTERRES
    85   44   45 1    
    86   44  110 1    
    87   45   46 1    
    88   45   47 1    
    89   45  111 1    
    90   46  112 1    
    91   46  113 1    
    92   46  114 1    
    93   47   48 2    
    94   47   49 am   BACKBONE|DICT|INTERRES
    95   49   50 1    
    96   49  115 1    
    97   50   51 1    
    98   50   52 1    
    99   50  116 1    
   100   51  117 1    
   101   51  118 1    
   102   51  119 1    
   103   52   53 2    
   104   52   54 am   BACKBONE|DICT|INTERRES
   105   54   55 1    
   106   54  120 1    
   107   55   56 1    
   108   55   57 1    
   109   55  121 1    
   110   56  122 1    
   111   56  123 1    
   112   56  124 1    
   113   57   58 2    
   114   57   59 am   BACKBONE|DICT|INTERRES
   115   59   60 1    
   116   59  125 1    
   117   60   61 1    
   118   60   62 1    
   119   60  126 1    
   120   61  127 1    
   121   61  128 1    
   122   61  129 1    
   123   62   63 2    
   124   62   64 am   BACKBONE|DICT|INTERRES
   125   64   65 1    
   126   64  130 1    
   127   65   66 1    
   128   65   69 1    
   129   65  131 1    
   130   66   67 am   BACKBONE|DICT|INTERRES
   131   66   68 2    
   132   67  132 1    
   133   67  133 1    
   134   69   70 1    
   135   69  134 1    
   136   69  135 1    
   137   70   71 1    
   138   71  136 1    
   139   71  137 1    
@<TRIPOS>SUBSTRUCTURE
     1 UNK         1 GROUP             0       ****    0 ROOT    
