@<TRIPOS>MOLECULE
3R137
137   139    1
SMALL
USER_CHARGES


@<TRIPOS>ATOM
      1 CA         22.4930   -3.0612   -5.9314 C.3       0 UNK        -0.2020 
      2 C          23.7612   -3.0644   -5.0932 C.2       0 UNK         0.4855 
      3 O          24.0128   -2.1116   -4.3558 O.2       0 UNK        -0.5197 
      4 N          24.5585   -4.1365   -5.1791 N.am      1 UNK        -0.4892 
      5 CA         25.8218   -4.3336   -4.4488 C.3       1 UNK         0.0835 
      6 C6         26.9375   -3.3444   -4.8991 C.3       12 UNK        -0.0855 
      7 S7         28.4985   -4.1960   -5.3043 S.3       12 UNK        -0.2931 
      8 C8         29.5559   -3.7909   -3.8781 C.3       12 UNK         0.0378 
      9 C9         29.9533   -2.3219   -3.8499 C.ar      12 UNK        -0.0802 
     10 C10        30.8765   -1.8289   -4.7778 C.ar      12 UNK        -0.0944 
     11 C11        31.2726   -0.4894   -4.7406 C.ar      12 UNK        -0.0787 
     12 C12        30.7386    0.3583   -3.7672 C.ar      12 UNK        -0.0862 
     13 C13        29.8195   -0.1223   -2.8298 C.ar      12 UNK        -0.0733 
     14 C14        29.4292   -1.4647   -2.8758 C.ar      12 UNK        -0.0832 
     15 C15        29.2790    0.8104   -1.7525 C.3       12 UNK         0.0240 
     16 S16        27.4891    1.1180   -1.8982 S.3       12 UNK        -0.2522 
     17 C17        27.3159    1.6707   -3.6307 C.3       12 UNK        -0.0967 
     18 CA         26.4917    0.6407   -4.4503 C.3       5 UNK         0.0660 
     19 N          25.1149    0.4685   -3.9646 N.am      5 UNK        -0.4015 
     20 C          24.1562    1.4055   -3.9204 C.2       4 UNK         0.4946 
     21 O          24.3077    2.5715   -4.2875 O.2       4 UNK        -0.5353 
     22 CA         22.7791    0.9675   -3.3922 C.3       4 UNK         0.0277 
     23 CB         21.8413    0.6189   -4.5601 C.3       4 UNK        -0.1981 
     24 N          22.8345   -0.1585   -2.4515 N.am      4 UNK        -0.4209 
     25 C          23.2901   -0.0575   -1.1945 C.2       3 UNK         0.4942 
     26 O          23.7455    0.9826   -0.7179 O.2       3 UNK        -0.5208 
     27 CA         23.1830   -1.2940   -0.2936 C.3       3 UNK         0.0250 
     28 CB         21.7695   -1.3741    0.3206 C.3       3 UNK        -0.1990 
     29 N          23.5312   -2.5569   -0.9600 N.am      3 UNK        -0.4232 
     30 C          23.8553   -3.6704   -0.2824 C.2       2 UNK         0.4993 
     31 O          23.9588   -3.7113    0.9450 O.2       2 UNK        -0.5286 
     32 CA         24.0709   -4.9768   -1.0672 C.3       2 UNK         0.0209 
     33 CB         22.8112   -5.8560   -0.9887 C.3       2 UNK        -0.1931 
     34 N          24.4308   -4.7941   -2.4728 N.am      2 UNK        -0.4546 
     35 C          25.6328   -4.3953   -2.9110 C.2       1 UNK         0.5154 
     36 O          26.5578   -4.0996   -2.1534 O.2       1 UNK        -0.5181 
     37 C          26.5249    0.8805   -5.9747 C.2       5 UNK         0.5014 
     38 O          27.3774    1.6167   -6.4751 O.2       5 UNK        -0.5248 
     39 N          25.5976    0.2232   -6.6897 N.am      6 UNK        -0.4434 
     40 CA         25.3574    0.3575   -8.1307 C.3       6 UNK         0.0363 
     41 CB         24.0958   -0.4396   -8.4996 C.3       6 UNK        -0.1936 
     42 C          26.5353   -0.0587   -9.0308 C.2       6 UNK         0.5081 
     43 O          26.5721    0.3490  -10.1919 O.2       6 UNK        -0.5248 
     44 N          27.4752   -0.8483   -8.4916 N.am      7 UNK        -0.4718 
     45 CA         28.7183   -1.2397   -9.1606 C.3       7 UNK         0.0273 
     46 CB         29.3946   -2.3556   -8.3532 C.3       7 UNK        -0.1935 
     47 C          29.6837   -0.0607   -9.3890 C.2       7 UNK         0.5018 
     48 O          30.4516   -0.1118  -10.3504 O.2       7 UNK        -0.5186 
     49 N          29.5995    0.9695   -8.5272 N.am      8 UNK        -0.4240 
     50 CA         30.2261    2.2967   -8.6025 C.3       8 UNK         0.0235 
     51 CB         29.2974    3.2459   -9.3891 C.3       8 UNK        -0.2000 
     52 C          31.6760    2.3011   -9.1243 C.2       8 UNK         0.4941 
     53 O          32.6029    2.0654   -8.3484 O.2       8 UNK        -0.5273 
     54 N          31.8383    2.5363  -10.4353 N.am      9 UNK        -0.4262 
     55 CA         33.1060    2.5657  -11.1715 C.3       9 UNK         0.0264 
     56 CB         32.8215    2.8918  -12.6465 C.3       9 UNK        -0.1955 
     57 C          33.9587    1.2876  -11.0604 C.2       9 UNK         0.5031 
     58 O          35.1712    1.3704  -11.2612 O.2       9 UNK        -0.5390 
     59 N          33.3475    0.1481  -10.6991 N.am      10 UNK        -0.4204 
     60 CA         34.0359   -1.1068  -10.3726 C.3       10 UNK         0.0237 
     61 CB         32.9954   -2.1893  -10.0506 C.3       10 UNK        -0.1985 
     62 C          35.0399   -0.9843   -9.2087 C.2       10 UNK         0.4970 
     63 O          36.0114   -1.7408   -9.1792 O.2       10 UNK        -0.4914 
     64 N          34.8055   -0.0337   -8.2935 N.am      11 UNK        -0.4285 
     65 CA         35.7397    0.3390   -7.2219 C.3       11 UNK         0.1007 
     66 C          36.8949    1.2774   -7.6854 C.2       11 UNK         0.5703 
     67 N          36.9477    1.7322   -8.9327 N.am      11 UNK        -0.7361 
     68 O          37.7820    1.5894   -6.8941 O.2       11 UNK        -0.4986 
     69 C69        34.9869    0.9234   -5.9988 C.3       12 UNK        -0.0947 
     70 S70        33.9826   -0.3288   -5.1343 S.3       12 UNK        -0.2240 
     71 C71        32.3028    0.0411   -5.7241 C.3       12 UNK         0.0194 
     72 H72        21.6196   -2.9678   -5.2868 H         1 UNK         0.0906 
     73 H73        22.3873   -3.9753   -6.5151 H         1 UNK         0.0906 
     74 H74        22.4971   -2.2188   -6.6208 H         1 UNK         0.0906 
     75 H75        24.2979   -4.8946   -5.7961 H         1 UNK         0.3140 
     76 H76        26.1308   -5.3445   -4.7203 H         1 UNK         0.1085 
     77 H77        27.1104   -2.5627   -4.1605 H         1 UNK         0.0836 
     78 H78        26.6376   -2.8166   -5.8053 H         1 UNK         0.0836 
     79 H79        29.0538   -4.0795   -2.9544 H         1 UNK         0.0731 
     80 H80        30.4592   -4.4003   -3.9311 H         1 UNK         0.0731 
     81 H81        31.2976   -2.4930   -5.5204 H         1 UNK         0.1312 
     82 H82        31.0542    1.3922   -3.7301 H         1 UNK         0.1406 
     83 H83        28.7209   -1.8411   -2.1491 H         1 UNK         0.1631 
     84 H84        29.7987    1.7696   -1.7740 H         1 UNK         0.0717 
     85 H85        29.4818    0.3777   -0.7719 H         1 UNK         0.0717 
     86 H86        26.8441    2.6538   -3.6437 H         1 UNK         0.0934 
     87 H87        28.3054    1.8169   -4.0652 H         1 UNK         0.0934 
     88 H88        26.9773   -0.3248   -4.3181 H         1 UNK         0.0739 
     89 H89        24.8427   -0.4812   -3.7271 H         1 UNK         0.3093 
     90 H90        22.3506    1.8229   -2.8649 H         1 UNK         0.0818 
     91 H91        20.8412    0.3674   -4.2068 H         1 UNK         0.0819 
     92 H92        22.2142   -0.2219   -5.1433 H         1 UNK         0.0819 
     93 H93        21.7391    1.4644   -5.2417 H         1 UNK         0.0819 
     94 H94        22.4797   -1.0413   -2.7884 H         1 UNK         0.3041 
     95 H95        23.8965   -1.1357    0.5186 H         1 UNK         0.0784 
     96 H96        21.4867   -0.4258    0.7803 H         1 UNK         0.0793 
     97 H97        21.0165   -1.6097   -0.4322 H         1 UNK         0.0793 
     98 H98        21.7109   -2.1336    1.1001 H         1 UNK         0.0793 
     99 H99        23.5442   -2.5745   -1.9711 H         1 UNK         0.3024 
    100 H100       24.8883   -5.5101   -0.5756 H         1 UNK         0.1171 
    101 H101       22.5296   -6.0442    0.0486 H         1 UNK         0.0786 
    102 H102       21.9575   -5.3839   -1.4767 H         1 UNK         0.0786 
    103 H103       22.9736   -6.8267   -1.4578 H         1 UNK         0.0786 
    104 H104       23.7242   -5.0130   -3.1602 H         1 UNK         0.2977 
    105 H105       24.9516   -0.3650   -6.1827 H         1 UNK         0.3127 
    106 H106       25.1652    1.4141   -8.3289 H         1 UNK         0.0770 
    107 H107       24.2246   -1.5061   -8.3114 H         1 UNK         0.0814 
    108 H108       23.8569   -0.3238   -9.5578 H         1 UNK         0.0814 
    109 H109       23.2279   -0.0960   -7.9363 H         1 UNK         0.0814 
    110 H110       27.3570   -1.1453   -7.5349 H         1 UNK         0.2983 
    111 H111       28.4574   -1.6398  -10.1430 H         1 UNK         0.0947 
    112 H112       29.7077   -2.0074   -7.3693 H         1 UNK         0.0806 
    113 H113       30.2774   -2.7321   -8.8686 H         1 UNK         0.0806 
    114 H114       28.7249   -3.2041   -8.2127 H         1 UNK         0.0806 
    115 H115       28.9190    0.8817   -7.7805 H         1 UNK         0.3000 
    116 H116       30.2764    2.6665   -7.5770 H         1 UNK         0.0850 
    117 H117       29.7375    4.2388   -9.4936 H         1 UNK         0.0810 
    118 H118       28.3467    3.3719   -8.8699 H         1 UNK         0.0810 
    119 H119       29.0726    2.8697  -10.3878 H         1 UNK         0.0810 
    120 H120       31.0030    2.6712  -10.9860 H         1 UNK         0.3040 
    121 H121       33.7002    3.3787  -10.7496 H         1 UNK         0.0766 
    122 H122       33.7481    2.9516  -13.2197 H         1 UNK         0.0812 
    123 H123       32.3166    3.8522  -12.7523 H         1 UNK         0.0812 
    124 H124       32.1978    2.1289  -13.1144 H         1 UNK         0.0812 
    125 H125       32.3368    0.1600  -10.5726 H         1 UNK         0.3205 
    126 H126       34.5938   -1.4142  -11.2594 H         1 UNK         0.0754 
    127 H127       32.4371   -1.9403   -9.1479 H         1 UNK         0.0769 
    128 H128       33.4739   -3.1551   -9.8825 H         1 UNK         0.0769 
    129 H129       32.2829   -2.3164  -10.8660 H         1 UNK         0.0769 
    130 H130       33.9959    0.5694   -8.3974 H         1 UNK         0.2981 
    131 H131       36.2399   -0.5706   -6.8842 H         1 UNK         0.0541 
    132 H132       36.2488    1.4808   -9.6237 H         1 UNK         0.3459 
    133 H133       37.7133    2.3304   -9.1985 H         1 UNK         0.3459 
    134 H134       34.3700    1.7743   -6.2910 H         1 UNK         0.0612 
    135 H135       35.6923    1.3079   -5.2599 H         1 UNK         0.0612 
    136 H136       32.1776    1.1182   -5.8418 H         1 UNK         0.0624 
    137 H137       32.1541   -0.4001   -6.7110 H         1 UNK         0.0624 
@<TRIPOS>BOND
     1    1    2 1    
     2    1   72 1    
     3    1   73 1    
     4    1   74 1    
     5    2    3 2    
     6    2    4 am   BACKBONE|DICT|INTERRES
     7    4    5 1    
     8    4   75 1    
     9    5    6 1    
    10    5   35 1    
    11    5   76 1    
    12    6    7 1    
    13    6   77 1    
    14    6   78 1    
    15    7    8 1    
    16    8    9 1    
    17    8   79 1    
    18    8   80 1    
    19    9   10 ar   
    20    9   14 ar   
    21   10   11 ar   
    22   10   81 1    
    23   11   12 ar   
    24   11   71 1    
    25   12   13 ar   
    26   12   82 1    
    27   13   14 ar   
    28   13   15 1    
    29   14   83 1    
    30   15   16 1    
    31   15   84 1    
    32   15   85 1    
    33   16   17 1    
    34   17   18 1    
    35   17   86 1    
    36   17   87 1    
    37   18   19 1    
    38   18   37 1    
    39   18   88 1    
    40   19   20 am   BACKBONE|DICT|INTERRES
    41   19   89 1    
    42   20   21 2    
    43   20   22 1    
    44   22   23 1    
    45   22   24 1    
    46   22   90 1    
    47   23   91 1    
    48   23   92 1    
    49   23   93 1    
    50   24   25 am   BACKBONE|DICT|INTERRES
    51   24   94 1    
    52   25   26 2    
    53   25   27 1    
    54   27   28 1    
    55   27   29 1    
    56   27   95 1    
    57   28   96 1    
    58   28   97 1    
    59   28   98 1    
    60   29   30 am   BACKBONE|DICT|INTERRES
    61   29   99 1    
    62   30   31 2    
    63   30   32 1    
    64   32   33 1    
    65   32   34 1    
    66   32  100 1    
    67   33  101 1    
    68   33  102 1    
    69   33  103 1    
    70   34   35 am   BACKBONE|DICT|INTERRES
    71   34  104 1    
    72   35   36 2    
    73   37   38 2    
    74   37   39 am   BACKBONE|DICT|INTERRES
    75   39   40 1    
    76   39  105 1    
    77   40   41 1    
    78   40   42 1    
    79   40  106 1    
    80   41  107 1    
    81   41  108 1    
    82   41  109 1    
    83   42   43 2    
    84   42   44 am   BACKBONE|DICT|INTERRES
    85   44   45 1    
    86   44  110 1    
    87   45   46 1    
    88   45   47 1    
    89   45  111 1    
    90   46  112 1    
    91   46  113 1    
    92   46  114 1    
    93   47   48 2    
    94   47   49 am   BACKBONE|DICT|INTERRES
    95   49   50 1    
    96   49  115 1    
    97   50   51 1    
    98   50   52 1    
    99   50  116 1    
   100   51  117 1    
   101   51  118 1    
   102   51  119 1    
   103   52   53 2    
   104   52   54 am   BACKBONE|DICT|INTERRES
   105   54   55 1    
   106   54  120 1    
   107   55   56 1    
   108   55   57 1    
   109   55  121 1    
   110   56  122 1    
   111   56  123 1    
   112   56  124 1    
   113   57   58 2    
   114   57   59 am   BACKBONE|DICT|INTERRES
   115   59   60 1    
   116   59  125 1    
   117   60   61 1    
   118   60   62 1    
   119   60  126 1    
   120   61  127 1    
   121   61  128 1    
   122   61  129 1    
   123   62   63 2    
   124   62   64 am   BACKBONE|DICT|INTERRES
   125   64   65 1    
   126   64  130 1    
   127   65   66 1    
   128   65   69 1    
   129   65  131 1    
   130   66   67 am   BACKBONE|DICT|INTERRES
   131   66   68 2    
   132   67  132 1    
   133   67  133 1    
   134   69   70 1    
   135   69  134 1    
   136   69  135 1    
   137   70   71 1    
   138   71  136 1    
   139   71  137 1    
@<TRIPOS>SUBSTRUCTURE
     1 UNK         1 GROUP             0       ****    0 ROOT    
