@<TRIPOS>MOLECULE
3R137
137   139    1
SMALL
USER_CHARGES


@<TRIPOS>ATOM
      1 CA         31.1805    1.3740   -1.2740 C.3       0 UNK        -0.2020 
      2 C          30.2220    0.3785   -1.9080 C.2       0 UNK         0.4855 
      3 O          29.5853    0.6962   -2.9131 O.2       0 UNK        -0.5197 
      4 N          30.0926   -0.8146   -1.3115 N.am      1 UNK        -0.4892 
      5 CA         29.3142   -1.9681   -1.7968 C.3       1 UNK         0.0835 
      6 C6         29.7977   -3.2924   -1.1353 C.3       12 UNK        -0.0855 
      7 S7         31.6049   -3.5710   -1.2393 S.3       12 UNK        -0.2931 
      8 C8         31.7338   -5.1403   -2.1599 C.3       12 UNK         0.0378 
      9 C9         31.5202   -4.9504   -3.6550 C.ar      12 UNK        -0.0802 
     10 C10        32.5901   -4.5920   -4.4833 C.ar      12 UNK        -0.0944 
     11 C11        32.3921   -4.3959   -5.8542 C.ar      12 UNK        -0.0787 
     12 C12        31.1162   -4.5751   -6.3956 C.ar      12 UNK        -0.0862 
     13 C13        30.0418   -4.9433   -5.5816 C.ar      12 UNK        -0.0733 
     14 C14        30.2539   -5.1421   -4.2137 C.ar      12 UNK        -0.0832 
     15 C15        28.6556   -5.1218   -6.1879 C.3       12 UNK         0.0240 
     16 S16        27.3684   -4.1860   -5.3014 S.3       12 UNK        -0.2522 
     17 C17        27.9376   -2.4621   -5.5000 C.3       12 UNK        -0.0967 
     18 CA         27.2447   -1.7246   -6.6685 C.3       5 UNK         0.0660 
     19 N          25.7836   -1.8397   -6.6360 N.am      5 UNK        -0.4015 
     20 C          24.9842   -1.5309   -7.6668 C.2       4 UNK         0.4946 
     21 O          25.4019   -1.1254   -8.7497 O.2       4 UNK        -0.5353 
     22 CA         23.4652   -1.6556   -7.4613 C.3       4 UNK         0.0277 
     23 CB         22.9788   -3.0455   -7.9008 C.3       4 UNK        -0.1981 
     24 N          23.0299   -1.3981   -6.0877 N.am      4 UNK        -0.4209 
     25 C          23.2003   -0.2441   -5.4284 C.2       3 UNK         0.4942 
     26 O          23.7381    0.7490   -5.9223 O.2       3 UNK        -0.5208 
     27 CA         22.7253   -0.1935   -3.9617 C.3       3 UNK         0.0250 
     28 CB         21.9712   -1.4609   -3.4959 C.3       3 UNK        -0.1990 
     29 N          23.8185    0.1033   -3.0267 N.am      3 UNK        -0.4232 
     30 C          24.9954   -0.5341   -2.9239 C.2       2 UNK         0.4993 
     31 O          25.3522   -1.4402   -3.6799 O.2       2 UNK        -0.5286 
     32 CA         25.9188   -0.0395   -1.7960 C.3       2 UNK         0.0209 
     33 CB         25.3135   -0.3083   -0.4010 C.3       2 UNK        -0.1931 
     34 N          27.2940   -0.5495   -1.8924 N.am      2 UNK        -0.4546 
     35 C          27.7786   -1.7751   -1.6387 C.2       1 UNK         0.5154 
     36 O          27.0830   -2.7182   -1.2563 O.2       1 UNK        -0.5181 
     37 C          27.6790   -0.2482   -6.7010 C.2       5 UNK         0.5014 
     38 O          28.5989    0.0984   -7.4460 O.2       5 UNK        -0.5248 
     39 N          26.9816    0.5969   -5.9254 N.am      6 UNK        -0.4434 
     40 CA         27.1649    2.0495   -5.8951 C.3       6 UNK         0.0363 
     41 CB         26.4186    2.6574   -4.6987 C.3       6 UNK        -0.1936 
     42 C          26.7583    2.7242   -7.2124 C.2       6 UNK         0.5081 
     43 O          27.4275    3.6654   -7.6378 O.2       6 UNK        -0.5248 
     44 N          25.6963    2.2134   -7.8497 N.am      7 UNK        -0.4718 
     45 CA         25.2738    2.6245   -9.1892 C.3       7 UNK         0.0273 
     46 CB         23.8683    2.0739   -9.4790 C.3       7 UNK        -0.1935 
     47 C          26.2714    2.1914  -10.2796 C.2       7 UNK         0.5018 
     48 O          26.5440    2.9759  -11.1890 O.2       7 UNK        -0.5186 
     49 N          26.7871    0.9579  -10.1743 N.am      8 UNK        -0.4240 
     50 CA         27.7194    0.3600  -11.1299 C.3       8 UNK         0.0235 
     51 CB         27.8051   -1.1584  -10.9005 C.3       8 UNK        -0.2000 
     52 C          29.1217    0.9869  -11.1066 C.2       8 UNK         0.4941 
     53 O          29.6255    1.3468  -12.1723 O.2       8 UNK        -0.5273 
     54 N          29.7442    1.0714   -9.9214 N.am      9 UNK        -0.4262 
     55 CA         31.1518    1.4722   -9.7875 C.3       9 UNK         0.0264 
     56 CB         32.0652    0.2677  -10.0907 C.3       9 UNK        -0.1955 
     57 C          31.5263    2.0896   -8.4319 C.2       9 UNK         0.5031 
     58 O          32.5022    2.8398   -8.3851 O.2       9 UNK        -0.5390 
     59 N          30.7951    1.7572   -7.3582 N.am      10 UNK        -0.4204 
     60 CA         31.0484    2.1577   -5.9662 C.3       10 UNK         0.0237 
     61 CB         30.8918    3.6819   -5.7748 C.3       10 UNK        -0.1985 
     62 C          32.3547    1.6000   -5.3702 C.2       10 UNK         0.4970 
     63 O          32.8863    2.1747   -4.4183 O.2       10 UNK        -0.4914 
     64 N          32.8222    0.4644   -5.9020 N.am      11 UNK        -0.4285 
     65 CA         33.7807   -0.4216   -5.2326 C.3       11 UNK         0.1007 
     66 C          33.1068   -1.1992   -4.0707 C.2       11 UNK         0.5703 
     67 N          33.8735   -1.6266   -3.0767 N.am      11 UNK        -0.7361 
     68 O          31.9016   -1.4323   -4.0740 O.2       11 UNK        -0.4986 
     69 C69        34.5018   -1.3637   -6.2338 C.3       12 UNK        -0.0947 
     70 S70        33.4027   -2.2916   -7.3639 S.3       12 UNK        -0.2240 
     71 C71        33.5486   -4.0082   -6.7651 C.3       12 UNK         0.0194 
     72 H72        31.5342    1.0364   -0.3000 H         1 UNK         0.0906 
     73 H73        32.0468    1.5176   -1.9189 H         1 UNK         0.0906 
     74 H74        30.6900    2.3380   -1.1418 H         1 UNK         0.0906 
     75 H75        30.6388   -1.0038   -0.4834 H         1 UNK         0.3140 
     76 H76        29.5046   -2.0562   -2.8687 H         1 UNK         0.1085 
     77 H77        29.5287   -3.3021   -0.0774 H         1 UNK         0.0836 
     78 H78        29.2802   -4.1442   -1.5784 H         1 UNK         0.0836 
     79 H79        32.7250   -5.5624   -1.9879 H         1 UNK         0.0731 
     80 H80        31.0256   -5.8656   -1.7561 H         1 UNK         0.0731 
     81 H81        33.5725   -4.4466   -4.0556 H         1 UNK         0.1312 
     82 H82        30.9631   -4.4202   -7.4551 H         1 UNK         0.1406 
     83 H83        29.4242   -5.4299   -3.5829 H         1 UNK         0.1631 
     84 H84        28.3969   -6.1811   -6.1689 H         1 UNK         0.0717 
     85 H85        28.6449   -4.8188   -7.2361 H         1 UNK         0.0717 
     86 H86        29.0221   -2.4375   -5.6238 H         1 UNK         0.0934 
     87 H87        27.7406   -1.9479   -4.5600 H         1 UNK         0.0934 
     88 H88        27.5884   -2.1852   -7.5970 H         1 UNK         0.0739 
     89 H89        25.3796   -2.1163   -5.7481 H         1 UNK         0.3093 
     90 H90        22.9886   -0.9094   -8.1001 H         1 UNK         0.0818 
     91 H91        21.8923   -3.1211   -7.8518 H         1 UNK         0.0819 
     92 H92        23.2692   -3.2511   -8.9322 H         1 UNK         0.0819 
     93 H93        23.4008   -3.8370   -7.2800 H         1 UNK         0.0819 
     94 H94        22.5963   -2.1661   -5.5960 H         1 UNK         0.3041 
     95 H95        22.0297    0.6450   -3.9032 H         1 UNK         0.0784 
     96 H96        21.1062   -1.6668   -4.1281 H         1 UNK         0.0793 
     97 H97        22.6106   -2.3449   -3.4969 H         1 UNK         0.0793 
     98 H98        21.5941   -1.3357   -2.4807 H         1 UNK         0.0793 
     99 H99        23.6372    0.8676   -2.3910 H         1 UNK         0.3024 
    100 H100       26.0044    1.0416   -1.9118 H         1 UNK         0.1171 
    101 H101       25.9929    0.0017    0.3931 H         1 UNK         0.0786 
    102 H102       25.0837   -1.3638   -0.2526 H         1 UNK         0.0786 
    103 H103       24.3837    0.2434   -0.2592 H         1 UNK         0.0786 
    104 H104       27.9791    0.1114   -2.2547 H         1 UNK         0.2977 
    105 H105       26.2147    0.2225   -5.3832 H         1 UNK         0.3127 
    106 H106       28.2225    2.2530   -5.7509 H         1 UNK         0.0770 
    107 H107       25.3518    2.4363   -4.7231 H         1 UNK         0.0814 
    108 H108       26.5250    3.7430   -4.6860 H         1 UNK         0.0814 
    109 H109       26.8246    2.2870   -3.7584 H         1 UNK         0.0814 
    110 H110       25.1622    1.4816   -7.3946 H         1 UNK         0.2983 
    111 H111       25.2197    3.7154   -9.2049 H         1 UNK         0.0947 
    112 H112       23.5072    2.4223  -10.4475 H         1 UNK         0.0806 
    113 H113       23.1501    2.4020   -8.7272 H         1 UNK         0.0806 
    114 H114       23.8555    0.9843   -9.5011 H         1 UNK         0.0806 
    115 H115       26.4381    0.3469   -9.4406 H         1 UNK         0.3000 
    116 H116       27.3093    0.5186  -12.1298 H         1 UNK         0.0850 
    117 H117       28.4981   -1.6227  -11.6034 H         1 UNK         0.0810 
    118 H118       26.8348   -1.6349  -11.0421 H         1 UNK         0.0810 
    119 H119       28.1507   -1.3977   -9.8946 H         1 UNK         0.0810 
    120 H120       29.2543    0.7575   -9.0875 H         1 UNK         0.3040 
    121 H121       31.3605    2.2502  -10.5254 H         1 UNK         0.0766 
    122 H122       33.1168    0.5212   -9.9487 H         1 UNK         0.0812 
    123 H123       31.8414   -0.5775   -9.4392 H         1 UNK         0.0812 
    124 H124       31.9537   -0.0677  -11.1218 H         1 UNK         0.0812 
    125 H125       30.0119    1.1138   -7.4720 H         1 UNK         0.3205 
    126 H126       30.2732    1.6711   -5.3761 H         1 UNK         0.0754 
    127 H127       30.8956    3.9444   -4.7162 H         1 UNK         0.0769 
    128 H128       29.9513    4.0408   -6.1928 H         1 UNK         0.0769 
    129 H129       31.7024    4.2352   -6.2493 H         1 UNK         0.0769 
    130 H130       32.3103    0.0426   -6.6617 H         1 UNK         0.2981 
    131 H131       34.5493    0.2098   -4.7824 H         1 UNK         0.0541 
    132 H132       34.8648   -1.4485   -3.0549 H         1 UNK         0.3459 
    133 H133       33.4322   -2.1483   -2.3342 H         1 UNK         0.3459 
    134 H134       35.1649   -2.0501   -5.7053 H         1 UNK         0.0612 
    135 H135       35.1597   -0.7632   -6.8634 H         1 UNK         0.0612 
    136 H136       33.5494   -4.6728   -7.6302 H         1 UNK         0.0624 
    137 H137       34.5080   -4.1626   -6.2702 H         1 UNK         0.0624 
@<TRIPOS>BOND
     1    1    2 1    
     2    1   72 1    
     3    1   73 1    
     4    1   74 1    
     5    2    3 2    
     6    2    4 am   BACKBONE|DICT|INTERRES
     7    4    5 1    
     8    4   75 1    
     9    5    6 1    
    10    5   35 1    
    11    5   76 1    
    12    6    7 1    
    13    6   77 1    
    14    6   78 1    
    15    7    8 1    
    16    8    9 1    
    17    8   79 1    
    18    8   80 1    
    19    9   10 ar   
    20    9   14 ar   
    21   10   11 ar   
    22   10   81 1    
    23   11   12 ar   
    24   11   71 1    
    25   12   13 ar   
    26   12   82 1    
    27   13   14 ar   
    28   13   15 1    
    29   14   83 1    
    30   15   16 1    
    31   15   84 1    
    32   15   85 1    
    33   16   17 1    
    34   17   18 1    
    35   17   86 1    
    36   17   87 1    
    37   18   19 1    
    38   18   37 1    
    39   18   88 1    
    40   19   20 am   BACKBONE|DICT|INTERRES
    41   19   89 1    
    42   20   21 2    
    43   20   22 1    
    44   22   23 1    
    45   22   24 1    
    46   22   90 1    
    47   23   91 1    
    48   23   92 1    
    49   23   93 1    
    50   24   25 am   BACKBONE|DICT|INTERRES
    51   24   94 1    
    52   25   26 2    
    53   25   27 1    
    54   27   28 1    
    55   27   29 1    
    56   27   95 1    
    57   28   96 1    
    58   28   97 1    
    59   28   98 1    
    60   29   30 am   BACKBONE|DICT|INTERRES
    61   29   99 1    
    62   30   31 2    
    63   30   32 1    
    64   32   33 1    
    65   32   34 1    
    66   32  100 1    
    67   33  101 1    
    68   33  102 1    
    69   33  103 1    
    70   34   35 am   BACKBONE|DICT|INTERRES
    71   34  104 1    
    72   35   36 2    
    73   37   38 2    
    74   37   39 am   BACKBONE|DICT|INTERRES
    75   39   40 1    
    76   39  105 1    
    77   40   41 1    
    78   40   42 1    
    79   40  106 1    
    80   41  107 1    
    81   41  108 1    
    82   41  109 1    
    83   42   43 2    
    84   42   44 am   BACKBONE|DICT|INTERRES
    85   44   45 1    
    86   44  110 1    
    87   45   46 1    
    88   45   47 1    
    89   45  111 1    
    90   46  112 1    
    91   46  113 1    
    92   46  114 1    
    93   47   48 2    
    94   47   49 am   BACKBONE|DICT|INTERRES
    95   49   50 1    
    96   49  115 1    
    97   50   51 1    
    98   50   52 1    
    99   50  116 1    
   100   51  117 1    
   101   51  118 1    
   102   51  119 1    
   103   52   53 2    
   104   52   54 am   BACKBONE|DICT|INTERRES
   105   54   55 1    
   106   54  120 1    
   107   55   56 1    
   108   55   57 1    
   109   55  121 1    
   110   56  122 1    
   111   56  123 1    
   112   56  124 1    
   113   57   58 2    
   114   57   59 am   BACKBONE|DICT|INTERRES
   115   59   60 1    
   116   59  125 1    
   117   60   61 1    
   118   60   62 1    
   119   60  126 1    
   120   61  127 1    
   121   61  128 1    
   122   61  129 1    
   123   62   63 2    
   124   62   64 am   BACKBONE|DICT|INTERRES
   125   64   65 1    
   126   64  130 1    
   127   65   66 1    
   128   65   69 1    
   129   65  131 1    
   130   66   67 am   BACKBONE|DICT|INTERRES
   131   66   68 2    
   132   67  132 1    
   133   67  133 1    
   134   69   70 1    
   135   69  134 1    
   136   69  135 1    
   137   70   71 1    
   138   71  136 1    
   139   71  137 1    
@<TRIPOS>SUBSTRUCTURE
     1 UNK         1 GROUP             0       ****    0 ROOT    
