@<TRIPOS>MOLECULE
3R137
137   139    1
SMALL
USER_CHARGES


@<TRIPOS>ATOM
      1 CA         27.2158   -4.2743    2.8178 C.3       0 UNK        -0.2020 
      2 C          26.7998   -4.3047    1.3547 C.2       0 UNK         0.4855 
      3 O          25.7822   -4.9143    1.0257 O.2       0 UNK        -0.5197 
      4 N          27.5796   -3.6462    0.4842 N.am      1 UNK        -0.4892 
      5 CA         27.3818   -3.5532   -0.9736 C.3       1 UNK         0.0835 
      6 C6         27.5420   -4.9141   -1.7122 C.3       12 UNK        -0.0855 
      7 S7         29.1508   -5.7114   -1.3588 S.3       12 UNK        -0.2931 
      8 C8         29.9625   -5.7460   -2.9982 C.3       12 UNK         0.0378 
      9 C9         30.2291   -4.3792   -3.6313 C.ar      12 UNK        -0.0802 
     10 C10        30.3025   -4.2852   -5.0259 C.ar      12 UNK        -0.0944 
     11 C11        30.5330   -3.0548   -5.6470 C.ar      12 UNK        -0.0787 
     12 C12        30.6709   -1.9077   -4.8631 C.ar      12 UNK        -0.0862 
     13 C13        30.6004   -1.9790   -3.4720 C.ar      12 UNK        -0.0733 
     14 C14        30.4151   -3.2227   -2.8619 C.ar      12 UNK        -0.0832 
     15 C15        30.7086   -0.7170   -2.6273 C.3       12 UNK         0.0240 
     16 S16        29.0586   -0.1250   -2.1268 S.3       12 UNK        -0.2522 
     17 C17        28.7747    1.3158   -3.2193 C.3       12 UNK        -0.0967 
     18 CA         28.4451    0.9594   -4.6912 C.3       5 UNK         0.0660 
     19 N          27.4154   -0.0750   -4.8055 N.am      5 UNK        -0.4015 
     20 C          27.1668   -0.7747   -5.9215 C.2       4 UNK         0.4946 
     21 O          27.7585   -0.6010   -6.9852 O.2       4 UNK        -0.5353 
     22 CA         26.0264   -1.8023   -5.8631 C.3       4 UNK         0.0277 
     23 CB         26.5781   -3.1670   -5.4234 C.3       4 UNK        -0.1981 
     24 N          24.9218   -1.3964   -4.9859 N.am      4 UNK        -0.4209 
     25 C          24.2042   -0.2707   -5.1403 C.2       3 UNK         0.4942 
     26 O          24.3967    0.5407   -6.0460 O.2       3 UNK        -0.5208 
     27 CA         23.1274    0.0466   -4.0896 C.3       3 UNK         0.0250 
     28 CB         21.7548   -0.4546   -4.5648 C.3       3 UNK        -0.1990 
     29 N          23.4064   -0.4880   -2.7545 N.am      3 UNK        -0.4232 
     30 C          24.4948   -0.2217   -2.0184 C.2       2 UNK         0.4993 
     31 O          25.4190    0.5001   -2.3986 O.2       2 UNK        -0.5286 
     32 CA         24.5916   -0.8926   -0.6357 C.3       2 UNK         0.0209 
     33 CB         23.3210   -1.6623   -0.2052 C.3       2 UNK        -0.1931 
     34 N          25.7660   -1.7651   -0.5421 N.am      2 UNK        -0.4546 
     35 C          26.0813   -2.8006   -1.3380 C.2       1 UNK         0.5154 
     36 O          25.4017   -3.1560   -2.3044 O.2       1 UNK        -0.5181 
     37 C          28.1206    2.2221   -5.5187 C.2       5 UNK         0.5014 
     38 O          29.0449    2.9606   -5.8615 O.2       5 UNK        -0.5248 
     39 N          26.8363    2.4444   -5.8341 N.am      6 UNK        -0.4434 
     40 CA         26.3733    3.5126   -6.7176 C.3       6 UNK         0.0363 
     41 CB         25.0624    4.0993   -6.1676 C.3       6 UNK        -0.1936 
     42 C          26.1766    2.9920   -8.1489 C.2       6 UNK         0.5081 
     43 O          26.6257    3.6402   -9.0941 O.2       6 UNK        -0.5248 
     44 N          25.5006    1.8418   -8.2872 N.am      7 UNK        -0.4718 
     45 CA         25.1220    1.2413   -9.5691 C.3       7 UNK         0.0273 
     46 CB         24.1167    0.1052   -9.3214 C.3       7 UNK        -0.1935 
     47 C          26.3117    0.7330  -10.3980 C.2       7 UNK         0.5018 
     48 O          26.2715    0.8345  -11.6249 O.2       7 UNK        -0.5186 
     49 N          27.3417    0.2066   -9.7261 N.am      8 UNK        -0.4240 
     50 CA         28.5690   -0.2991  -10.3318 C.3       8 UNK         0.0235 
     51 CB         28.6273   -1.8291  -10.1647 C.3       8 UNK        -0.2000 
     52 C          29.7652    0.4313   -9.7093 C.2       8 UNK         0.4941 
     53 O          30.6655   -0.1999   -9.1564 O.2       8 UNK        -0.5273 
     54 N          29.7753    1.7663   -9.8429 N.am      9 UNK        -0.4262 
     55 CA         30.8104    2.6783   -9.3306 C.3       9 UNK         0.0264 
     56 CB         30.4331    4.1219   -9.6988 C.3       9 UNK        -0.1955 
     57 C          32.2542    2.3631   -9.7799 C.2       9 UNK         0.5031 
     58 O          33.1979    2.7980   -9.1182 O.2       9 UNK        -0.5390 
     59 N          32.4052    1.5694  -10.8512 N.am      10 UNK        -0.4204 
     60 CA         33.6545    0.9576  -11.3148 C.3       10 UNK         0.0237 
     61 CB         33.3716    0.1550  -12.5953 C.3       10 UNK        -0.1985 
     62 C          34.3615    0.0688  -10.2687 C.2       10 UNK         0.4970 
     63 O          35.5706   -0.1328  -10.3916 O.2       10 UNK        -0.4914 
     64 N          33.6300   -0.4159   -9.2524 N.am      11 UNK        -0.4285 
     65 CA         34.1979   -1.0254   -8.0374 C.3       11 UNK         0.1007 
     66 C          35.0936   -0.0655   -7.1944 C.2       11 UNK         0.5703 
     67 N          34.9928    1.2524   -7.3353 N.am      11 UNK        -0.7361 
     68 O          35.9021   -0.5321   -6.3953 O.2       11 UNK        -0.4986 
     69 C69        33.0955   -1.6317   -7.1314 C.3       12 UNK        -0.0947 
     70 S70        32.2796   -3.1047   -7.8313 S.3       12 UNK        -0.2240 
     71 C71        30.5880   -2.9474   -7.1645 C.3       12 UNK         0.0194 
     72 H72        27.3862   -5.2880    3.1795 H         1 UNK         0.0906 
     73 H73        28.1305   -3.7021    2.9720 H         1 UNK         0.0906 
     74 H74        26.4286   -3.8246    3.4225 H         1 UNK         0.0906 
     75 H75        28.4045   -3.1771    0.8327 H         1 UNK         0.3140 
     76 H76        28.1699   -2.8960   -1.3355 H         1 UNK         0.1085 
     77 H77        27.4440   -4.7802   -2.7904 H         1 UNK         0.0836 
     78 H78        26.7455   -5.6018   -1.4239 H         1 UNK         0.0836 
     79 H79        29.3476   -6.3512   -3.6665 H         1 UNK         0.0731 
     80 H80        30.9147   -6.2686   -2.8995 H         1 UNK         0.0731 
     81 H81        30.1771   -5.1716   -5.6327 H         1 UNK         0.1312 
     82 H82        30.8331   -0.9558   -5.3424 H         1 UNK         0.1406 
     83 H83        30.3935   -3.2793   -1.7831 H         1 UNK         0.1631 
     84 H84        31.2474    0.0657   -3.1635 H         1 UNK         0.0717 
     85 H85        31.2932   -0.9282   -1.7307 H         1 UNK         0.0717 
     86 H86        27.9523    1.8866   -2.7828 H         1 UNK         0.0934 
     87 H87        29.6485    1.9686   -3.1712 H         1 UNK         0.0934 
     88 H88        29.3510    0.5583   -5.1390 H         1 UNK         0.0739 
     89 H89        26.8562   -0.2380   -3.9766 H         1 UNK         0.3093 
     90 H90        25.6212   -1.9058   -6.8713 H         1 UNK         0.0818 
     91 H91        27.0715   -3.1050   -4.4532 H         1 UNK         0.0819 
     92 H92        25.7914   -3.9185   -5.3567 H         1 UNK         0.0819 
     93 H93        27.3194   -3.5323   -6.1356 H         1 UNK         0.0819 
     94 H94        24.7338   -1.9888   -4.1856 H         1 UNK         0.3041 
     95 H95        23.0812    1.1338   -3.9985 H         1 UNK         0.0784 
     96 H96        21.5121   -0.0518   -5.5495 H         1 UNK         0.0793 
     97 H97        21.7261   -1.5423   -4.6418 H         1 UNK         0.0793 
     98 H98        20.9605   -0.1435   -3.8860 H         1 UNK         0.0793 
     99 H99        22.7165   -1.1147   -2.3662 H         1 UNK         0.3024 
    100 H100       24.7451   -0.0811    0.0778 H         1 UNK         0.1171 
    101 H101       23.4315   -2.0559    0.8055 H         1 UNK         0.0786 
    102 H102       22.4453   -1.0118   -0.1959 H         1 UNK         0.0786 
    103 H103       23.1065   -2.5084   -0.8593 H         1 UNK         0.0786 
    104 H104       26.4115   -1.5452    0.2033 H         1 UNK         0.2977 
    105 H105       26.1422    1.7643   -5.5491 H         1 UNK         0.3127 
    106 H106       27.1105    4.3179   -6.7523 H         1 UNK         0.0770 
    107 H107       24.2748    3.3478   -6.0985 H         1 UNK         0.0814 
    108 H108       24.6942    4.8994   -6.8112 H         1 UNK         0.0814 
    109 H109       25.2066    4.5236   -5.1740 H         1 UNK         0.0814 
    110 H110       25.1419    1.3781   -7.4539 H         1 UNK         0.2983 
    111 H111       24.6225    2.0131  -10.1590 H         1 UNK         0.0947 
    112 H112       24.5522   -0.6934   -8.7203 H         1 UNK         0.0806 
    113 H113       23.7853   -0.3366  -10.2621 H         1 UNK         0.0806 
    114 H114       23.2289    0.4670   -8.8022 H         1 UNK         0.0806 
    115 H115       27.3092    0.1546   -8.7099 H         1 UNK         0.3000 
    116 H116       28.5973   -0.0796  -11.4011 H         1 UNK         0.0850 
    117 H117       27.8315   -2.3149  -10.7291 H         1 UNK         0.0810 
    118 H118       28.5179   -2.1238   -9.1217 H         1 UNK         0.0810 
    119 H119       29.5746   -2.2324  -10.5253 H         1 UNK         0.0810 
    120 H120       28.9827    2.2011  -10.2949 H         1 UNK         0.3040 
    121 H121       30.7956    2.5910   -8.2421 H         1 UNK         0.0766 
    122 H122       31.1642    4.8299   -9.3056 H         1 UNK         0.0812 
    123 H123       29.4639    4.3964   -9.2809 H         1 UNK         0.0812 
    124 H124       30.3879    4.2646  -10.7791 H         1 UNK         0.0812 
    125 H125       31.5632    1.2670  -11.3175 H         1 UNK         0.3205 
    126 H126       34.3408    1.7703  -11.5611 H         1 UNK         0.0754 
    127 H127       34.2873   -0.2890  -12.9888 H         1 UNK         0.0769 
    128 H128       32.9596    0.7895  -13.3804 H         1 UNK         0.0769 
    129 H129       32.6674   -0.6582  -12.4136 H         1 UNK         0.0769 
    130 H130       32.6264   -0.2554   -9.2380 H         1 UNK         0.2981 
    131 H131       34.8506   -1.8379   -8.3615 H         1 UNK         0.0541 
    132 H132       34.3372    1.6675   -7.9900 H         1 UNK         0.3459 
    133 H133       35.5855    1.8489   -6.7809 H         1 UNK         0.3459 
    134 H134       33.4979   -1.9310   -6.1614 H         1 UNK         0.0612 
    135 H135       32.3471   -0.8646   -6.9333 H         1 UNK         0.0612 
    136 H136       30.1615   -1.9940   -7.4704 H         1 UNK         0.0624 
    137 H137       29.9604   -3.7172   -7.6152 H         1 UNK         0.0624 
@<TRIPOS>BOND
     1    1    2 1    
     2    1   72 1    
     3    1   73 1    
     4    1   74 1    
     5    2    3 2    
     6    2    4 am   BACKBONE|DICT|INTERRES
     7    4    5 1    
     8    4   75 1    
     9    5    6 1    
    10    5   35 1    
    11    5   76 1    
    12    6    7 1    
    13    6   77 1    
    14    6   78 1    
    15    7    8 1    
    16    8    9 1    
    17    8   79 1    
    18    8   80 1    
    19    9   10 ar   
    20    9   14 ar   
    21   10   11 ar   
    22   10   81 1    
    23   11   12 ar   
    24   11   71 1    
    25   12   13 ar   
    26   12   82 1    
    27   13   14 ar   
    28   13   15 1    
    29   14   83 1    
    30   15   16 1    
    31   15   84 1    
    32   15   85 1    
    33   16   17 1    
    34   17   18 1    
    35   17   86 1    
    36   17   87 1    
    37   18   19 1    
    38   18   37 1    
    39   18   88 1    
    40   19   20 am   BACKBONE|DICT|INTERRES
    41   19   89 1    
    42   20   21 2    
    43   20   22 1    
    44   22   23 1    
    45   22   24 1    
    46   22   90 1    
    47   23   91 1    
    48   23   92 1    
    49   23   93 1    
    50   24   25 am   BACKBONE|DICT|INTERRES
    51   24   94 1    
    52   25   26 2    
    53   25   27 1    
    54   27   28 1    
    55   27   29 1    
    56   27   95 1    
    57   28   96 1    
    58   28   97 1    
    59   28   98 1    
    60   29   30 am   BACKBONE|DICT|INTERRES
    61   29   99 1    
    62   30   31 2    
    63   30   32 1    
    64   32   33 1    
    65   32   34 1    
    66   32  100 1    
    67   33  101 1    
    68   33  102 1    
    69   33  103 1    
    70   34   35 am   BACKBONE|DICT|INTERRES
    71   34  104 1    
    72   35   36 2    
    73   37   38 2    
    74   37   39 am   BACKBONE|DICT|INTERRES
    75   39   40 1    
    76   39  105 1    
    77   40   41 1    
    78   40   42 1    
    79   40  106 1    
    80   41  107 1    
    81   41  108 1    
    82   41  109 1    
    83   42   43 2    
    84   42   44 am   BACKBONE|DICT|INTERRES
    85   44   45 1    
    86   44  110 1    
    87   45   46 1    
    88   45   47 1    
    89   45  111 1    
    90   46  112 1    
    91   46  113 1    
    92   46  114 1    
    93   47   48 2    
    94   47   49 am   BACKBONE|DICT|INTERRES
    95   49   50 1    
    96   49  115 1    
    97   50   51 1    
    98   50   52 1    
    99   50  116 1    
   100   51  117 1    
   101   51  118 1    
   102   51  119 1    
   103   52   53 2    
   104   52   54 am   BACKBONE|DICT|INTERRES
   105   54   55 1    
   106   54  120 1    
   107   55   56 1    
   108   55   57 1    
   109   55  121 1    
   110   56  122 1    
   111   56  123 1    
   112   56  124 1    
   113   57   58 2    
   114   57   59 am   BACKBONE|DICT|INTERRES
   115   59   60 1    
   116   59  125 1    
   117   60   61 1    
   118   60   62 1    
   119   60  126 1    
   120   61  127 1    
   121   61  128 1    
   122   61  129 1    
   123   62   63 2    
   124   62   64 am   BACKBONE|DICT|INTERRES
   125   64   65 1    
   126   64  130 1    
   127   65   66 1    
   128   65   69 1    
   129   65  131 1    
   130   66   67 am   BACKBONE|DICT|INTERRES
   131   66   68 2    
   132   67  132 1    
   133   67  133 1    
   134   69   70 1    
   135   69  134 1    
   136   69  135 1    
   137   70   71 1    
   138   71  136 1    
   139   71  137 1    
@<TRIPOS>SUBSTRUCTURE
     1 UNK         1 GROUP             0       ****    0 ROOT    
