@<TRIPOS>MOLECULE
3R137
137   139    1
SMALL
USER_CHARGES


@<TRIPOS>ATOM
      1 CA         23.4424    0.3289   -6.0710 C.3       0 UNK        -0.2020 
      2 C          23.7920   -1.1174   -6.3874 C.2       0 UNK         0.4855 
      3 O          22.8943   -1.9374   -6.5858 O.2       0 UNK        -0.5197 
      4 N          25.0889   -1.4442   -6.4243 N.am      1 UNK        -0.4892 
      5 CA         25.6143   -2.7907   -6.6514 C.3       1 UNK         0.0835 
      6 C6         27.1191   -2.7863   -7.0323 C.3       12 UNK        -0.0855 
      7 S7         28.1895   -1.7564   -5.9661 S.3       12 UNK        -0.2931 
      8 C8         29.2207   -3.0317   -5.1772 C.3       12 UNK         0.0378 
      9 C9         30.2278   -2.4024   -4.2292 C.ar      12 UNK        -0.0802 
     10 C10        31.3877   -1.8087   -4.7325 C.ar      12 UNK        -0.0944 
     11 C11        32.3016   -1.1883   -3.8772 C.ar      12 UNK        -0.0787 
     12 C12        32.0481   -1.1700   -2.5022 C.ar      12 UNK        -0.0862 
     13 C13        30.8989   -1.7755   -1.9812 C.ar      12 UNK        -0.0733 
     14 C14        29.9999   -2.4034   -2.8509 C.ar      12 UNK        -0.0832 
     15 C15        30.6452   -1.7525   -0.4768 C.3       12 UNK         0.0240 
     16 S16        28.9590   -1.2172   -0.0269 S.3       12 UNK        -0.2522 
     17 C17        28.8215    0.3894   -0.8828 C.3       12 UNK        -0.0967 
     18 CA         27.8029    0.3340   -2.0491 C.3       5 UNK         0.0660 
     19 N          26.4509    0.0159   -1.5804 N.am      5 UNK        -0.4015 
     20 C          25.4118   -0.2641   -2.3757 C.2       4 UNK         0.4946 
     21 O          25.4767   -0.3280   -3.6044 O.2       4 UNK        -0.5353 
     22 CA         24.0585   -0.4616   -1.6877 C.3       4 UNK         0.0277 
     23 CB         23.3692    0.9043   -1.4872 C.3       4 UNK        -0.1981 
     24 N          23.2379   -1.3391   -2.5204 N.am      4 UNK        -0.4209 
     25 C          22.0675   -1.8854   -2.1680 C.2       3 UNK         0.4942 
     26 O          21.5432   -1.7293   -1.0643 O.2       3 UNK        -0.5208 
     27 CA         21.3482   -2.7500   -3.2166 C.3       3 UNK         0.0250 
     28 CB         20.4680   -1.8786   -4.1274 C.3       3 UNK        -0.1990 
     29 N          22.2640   -3.5532   -4.0313 N.am      3 UNK        -0.4232 
     30 C          22.8558   -4.6775   -3.5965 C.2       2 UNK         0.4993 
     31 O          22.7013   -5.1335   -2.4627 O.2       2 UNK        -0.5286 
     32 CA         23.7527   -5.4452   -4.5856 C.3       2 UNK         0.0209 
     33 CB         22.9751   -6.6075   -5.2252 C.3       2 UNK        -0.1931 
     34 N          24.3025   -4.5960   -5.6437 N.am      2 UNK        -0.4546 
     35 C          25.2801   -3.7014   -5.4510 C.2       1 UNK         0.5154 
     36 O          25.8618   -3.5598   -4.3744 O.2       1 UNK        -0.5181 
     37 C          27.7948    1.6603   -2.8303 C.2       5 UNK         0.5014 
     38 O          27.3481    2.6757   -2.2896 O.2       5 UNK        -0.5248 
     39 N          28.2774    1.6299   -4.0758 N.am      6 UNK        -0.4434 
     40 CA         28.2775    2.7541   -5.0047 C.3       6 UNK         0.0363 
     41 CB         26.8580    2.9543   -5.5772 C.3       6 UNK        -0.1936 
     42 C          29.2787    2.4696   -6.1282 C.2       6 UNK         0.5081 
     43 O          29.7654    1.3454   -6.2548 O.2       6 UNK        -0.5248 
     44 N          29.5110    3.4771   -6.9784 N.am      7 UNK        -0.4718 
     45 CA         30.3529    3.3960   -8.1793 C.3       7 UNK         0.0273 
     46 CB         30.6709    4.8218   -8.6613 C.3       7 UNK        -0.1935 
     47 C          29.7581    2.5457   -9.3237 C.2       7 UNK         0.5018 
     48 O          30.3770    2.4543  -10.3837 O.2       7 UNK        -0.5186 
     49 N          28.5934    1.9187   -9.1014 N.am      8 UNK        -0.4240 
     50 CA         27.9026    1.0077  -10.0202 C.3       8 UNK         0.0235 
     51 CB         26.5918    0.5401   -9.3652 C.3       8 UNK        -0.2000 
     52 C          28.7466   -0.2038  -10.4620 C.2       8 UNK         0.4941 
     53 O          28.5683   -0.6778  -11.5842 O.2       8 UNK        -0.5273 
     54 N          29.6641   -0.6555   -9.5955 N.am      9 UNK        -0.4262 
     55 CA         30.6539   -1.6978   -9.8828 C.3       9 UNK         0.0264 
     56 CB         30.5853   -2.7696   -8.7822 C.3       9 UNK        -0.1955 
     57 C          32.0747   -1.1173  -10.0380 C.2       9 UNK         0.5031 
     58 O          33.0479   -1.8499   -9.8497 O.2       9 UNK        -0.5390 
     59 N          32.1837    0.1806  -10.3642 N.am      10 UNK        -0.4204 
     60 CA         33.3915    0.9847  -10.6097 C.3       10 UNK         0.0237 
     61 CB         34.2069    0.4322  -11.7956 C.3       10 UNK        -0.1985 
     62 C          34.2920    1.2223   -9.3836 C.2       10 UNK         0.4970 
     63 O          34.7601    2.3467   -9.2035 O.2       10 UNK        -0.4914 
     64 N          34.5301    0.1761   -8.5845 N.am      11 UNK        -0.4285 
     65 CA         35.4121    0.1482   -7.4030 C.3       11 UNK         0.1007 
     66 C          36.9296    0.3213   -7.7236 C.2       11 UNK         0.5703 
     67 N          37.3687    0.1418   -8.9642 N.am      11 UNK        -0.7361 
     68 O          37.7325    0.5874   -6.8319 O.2       11 UNK        -0.4986 
     69 C69        34.9328    1.0754   -6.2456 C.3       12 UNK        -0.0947 
     70 S70        33.2361    0.7071   -5.6910 S.3       12 UNK        -0.2240 
     71 C71        33.5757   -0.5710   -4.4385 C.3       12 UNK         0.0194 
     72 H72        24.3309    0.9574   -6.0228 H         1 UNK         0.0906 
     73 H73        22.7807    0.7334   -6.8362 H         1 UNK         0.0906 
     74 H74        22.9355    0.3927   -5.1089 H         1 UNK         0.0906 
     75 H75        25.7783   -0.7746   -6.1081 H         1 UNK         0.3140 
     76 H76        25.0855   -3.1922   -7.5191 H         1 UNK         0.1085 
     77 H77        27.5049   -3.8064   -7.0784 H         1 UNK         0.0836 
     78 H78        27.2231   -2.3993   -8.0469 H         1 UNK         0.0836 
     79 H79        29.7447   -3.6070   -5.9414 H         1 UNK         0.0731 
     80 H80        28.5809   -3.7357   -4.6431 H         1 UNK         0.0731 
     81 H81        31.5765   -1.8103   -5.7954 H         1 UNK         0.1312 
     82 H82        32.7527   -0.6923   -1.8351 H         1 UNK         0.1406 
     83 H83        29.1066   -2.8688   -2.4558 H         1 UNK         0.1631 
     84 H84        31.3579   -1.0962    0.0250 H         1 UNK         0.0717 
     85 H85        30.8142   -2.7530   -0.0768 H         1 UNK         0.0717 
     86 H86        28.5280    1.1443   -0.1505 H         1 UNK         0.0934 
     87 H87        29.8057    0.6934   -1.2446 H         1 UNK         0.0934 
     88 H88        28.0997   -0.4595   -2.7370 H         1 UNK         0.0739 
     89 H89        26.3067    0.0735   -0.5835 H         1 UNK         0.3093 
     90 H90        24.2180   -0.9445   -0.7212 H         1 UNK         0.0818 
     91 H91        24.0023    1.5841   -0.9154 H         1 UNK         0.0819 
     92 H92        23.1536    1.3867   -2.4415 H         1 UNK         0.0819 
     93 H93        22.4310    0.8094   -0.9411 H         1 UNK         0.0819 
     94 H94        23.6419   -1.5386   -3.4274 H         1 UNK         0.3041 
     95 H95        20.6868   -3.4323   -2.6776 H         1 UNK         0.0784 
     96 H96        19.7424   -1.3131   -3.5411 H         1 UNK         0.0793 
     97 H97        21.0561   -1.1589   -4.6961 H         1 UNK         0.0793 
     98 H98        19.9068   -2.4870   -4.8369 H         1 UNK         0.0793 
     99 H99        22.4486   -3.2276   -4.9746 H         1 UNK         0.3024 
    100 H100       24.5830   -5.8635   -4.0112 H         1 UNK         0.1171 
    101 H101       22.1328   -6.2522   -5.8202 H         1 UNK         0.0786 
    102 H102       23.6165   -7.2059   -5.8725 H         1 UNK         0.0786 
    103 H103       22.5752   -7.2761   -4.4614 H         1 UNK         0.0786 
    104 H104       23.8417   -4.6330   -6.5424 H         1 UNK         0.2977 
    105 H105       28.6772    0.7792   -4.4599 H         1 UNK         0.3127 
    106 H106       28.5997    3.6553   -4.4787 H         1 UNK         0.0770 
    107 H107       26.8163    3.8042   -6.2590 H         1 UNK         0.0814 
    108 H108       26.1307    3.1461   -4.7882 H         1 UNK         0.0814 
    109 H109       26.5235    2.0743   -6.1277 H         1 UNK         0.0814 
    110 H110       29.0555    4.3639   -6.8128 H         1 UNK         0.2983 
    111 H111       31.2935    2.9170   -7.8961 H         1 UNK         0.0947 
    112 H112       31.3508    4.8062   -9.5145 H         1 UNK         0.0806 
    113 H113       31.1552    5.4069   -7.8792 H         1 UNK         0.0806 
    114 H114       29.7704    5.3530   -8.9720 H         1 UNK         0.0806 
    115 H115       28.1745    2.0421   -8.1923 H         1 UNK         0.3000 
    116 H116       27.6569    1.5761  -10.9196 H         1 UNK         0.0850 
    117 H117       26.7752    0.0244   -8.4221 H         1 UNK         0.0810 
    118 H118       26.0521   -0.1504  -10.0150 H         1 UNK         0.0810 
    119 H119       25.9258    1.3793   -9.1639 H         1 UNK         0.0810 
    120 H120       29.7290   -0.2104   -8.6885 H         1 UNK         0.3040 
    121 H121       30.4227   -2.1873  -10.8309 H         1 UNK         0.0766 
    122 H122       29.5892   -3.2064   -8.7179 H         1 UNK         0.0812 
    123 H123       30.8316   -2.3512   -7.8088 H         1 UNK         0.0812 
    124 H124       31.2813   -3.5867   -8.9762 H         1 UNK         0.0812 
    125 H125       31.3234    0.7131  -10.4583 H         1 UNK         0.3205 
    126 H126       33.0225    1.9676  -10.9075 H         1 UNK         0.0754 
    127 H127       35.0455    1.0890  -12.0306 H         1 UNK         0.0769 
    128 H128       33.5947    0.3563  -12.6943 H         1 UNK         0.0769 
    129 H129       34.6184   -0.5557  -11.5869 H         1 UNK         0.0769 
    130 H130       34.1089   -0.7106   -8.8522 H         1 UNK         0.2981 
    131 H131       35.3431   -0.8753   -7.0343 H         1 UNK         0.0541 
    132 H132       36.7283   -0.0959   -9.7039 H         1 UNK         0.3459 
    133 H133       38.3523    0.2438   -9.1586 H         1 UNK         0.3459 
    134 H134       34.9724    2.1218   -6.5507 H         1 UNK         0.0612 
    135 H135       35.5943    0.9934   -5.3816 H         1 UNK         0.0612 
    136 H136       34.1785   -1.3626   -4.8851 H         1 UNK         0.0624 
    137 H137       34.1770   -0.1316   -3.6412 H         1 UNK         0.0624 
@<TRIPOS>BOND
     1    1    2 1    
     2    1   72 1    
     3    1   73 1    
     4    1   74 1    
     5    2    3 2    
     6    2    4 am   BACKBONE|DICT|INTERRES
     7    4    5 1    
     8    4   75 1    
     9    5    6 1    
    10    5   35 1    
    11    5   76 1    
    12    6    7 1    
    13    6   77 1    
    14    6   78 1    
    15    7    8 1    
    16    8    9 1    
    17    8   79 1    
    18    8   80 1    
    19    9   10 ar   
    20    9   14 ar   
    21   10   11 ar   
    22   10   81 1    
    23   11   12 ar   
    24   11   71 1    
    25   12   13 ar   
    26   12   82 1    
    27   13   14 ar   
    28   13   15 1    
    29   14   83 1    
    30   15   16 1    
    31   15   84 1    
    32   15   85 1    
    33   16   17 1    
    34   17   18 1    
    35   17   86 1    
    36   17   87 1    
    37   18   19 1    
    38   18   37 1    
    39   18   88 1    
    40   19   20 am   BACKBONE|DICT|INTERRES
    41   19   89 1    
    42   20   21 2    
    43   20   22 1    
    44   22   23 1    
    45   22   24 1    
    46   22   90 1    
    47   23   91 1    
    48   23   92 1    
    49   23   93 1    
    50   24   25 am   BACKBONE|DICT|INTERRES
    51   24   94 1    
    52   25   26 2    
    53   25   27 1    
    54   27   28 1    
    55   27   29 1    
    56   27   95 1    
    57   28   96 1    
    58   28   97 1    
    59   28   98 1    
    60   29   30 am   BACKBONE|DICT|INTERRES
    61   29   99 1    
    62   30   31 2    
    63   30   32 1    
    64   32   33 1    
    65   32   34 1    
    66   32  100 1    
    67   33  101 1    
    68   33  102 1    
    69   33  103 1    
    70   34   35 am   BACKBONE|DICT|INTERRES
    71   34  104 1    
    72   35   36 2    
    73   37   38 2    
    74   37   39 am   BACKBONE|DICT|INTERRES
    75   39   40 1    
    76   39  105 1    
    77   40   41 1    
    78   40   42 1    
    79   40  106 1    
    80   41  107 1    
    81   41  108 1    
    82   41  109 1    
    83   42   43 2    
    84   42   44 am   BACKBONE|DICT|INTERRES
    85   44   45 1    
    86   44  110 1    
    87   45   46 1    
    88   45   47 1    
    89   45  111 1    
    90   46  112 1    
    91   46  113 1    
    92   46  114 1    
    93   47   48 2    
    94   47   49 am   BACKBONE|DICT|INTERRES
    95   49   50 1    
    96   49  115 1    
    97   50   51 1    
    98   50   52 1    
    99   50  116 1    
   100   51  117 1    
   101   51  118 1    
   102   51  119 1    
   103   52   53 2    
   104   52   54 am   BACKBONE|DICT|INTERRES
   105   54   55 1    
   106   54  120 1    
   107   55   56 1    
   108   55   57 1    
   109   55  121 1    
   110   56  122 1    
   111   56  123 1    
   112   56  124 1    
   113   57   58 2    
   114   57   59 am   BACKBONE|DICT|INTERRES
   115   59   60 1    
   116   59  125 1    
   117   60   61 1    
   118   60   62 1    
   119   60  126 1    
   120   61  127 1    
   121   61  128 1    
   122   61  129 1    
   123   62   63 2    
   124   62   64 am   BACKBONE|DICT|INTERRES
   125   64   65 1    
   126   64  130 1    
   127   65   66 1    
   128   65   69 1    
   129   65  131 1    
   130   66   67 am   BACKBONE|DICT|INTERRES
   131   66   68 2    
   132   67  132 1    
   133   67  133 1    
   134   69   70 1    
   135   69  134 1    
   136   69  135 1    
   137   70   71 1    
   138   71  136 1    
   139   71  137 1    
@<TRIPOS>SUBSTRUCTURE
     1 UNK         1 GROUP             0       ****    0 ROOT    
