@<TRIPOS>MOLECULE
3R137
137   139    1
SMALL
USER_CHARGES


@<TRIPOS>ATOM
      1 CA         31.2020    0.7321   -0.1699 C.3       0 UNK        -0.2020 
      2 C          30.2272   -0.4150    0.0511 C.2       0 UNK         0.4855 
      3 O          29.7806   -0.6215    1.1799 O.2       0 UNK        -0.5197 
      4 N          29.9140   -1.1582   -1.0195 N.am      1 UNK        -0.4892 
      5 CA         28.9527   -2.2684   -1.0892 C.3       1 UNK         0.0835 
      6 C6         29.1950   -3.3677   -0.0153 C.3       12 UNK        -0.0855 
      7 S7         28.6220   -5.0226   -0.5346 S.3       12 UNK        -0.2931 
      8 C8         30.1467   -5.7479   -1.2143 C.3       12 UNK         0.0378 
      9 C9         30.5334   -5.0953   -2.5330 C.ar      12 UNK        -0.0802 
     10 C10        31.5042   -4.0907   -2.5665 C.ar      12 UNK        -0.0944 
     11 C11        31.8653   -3.4792   -3.7705 C.ar      12 UNK        -0.0787 
     12 C12        31.2489   -3.9078   -4.9561 C.ar      12 UNK        -0.0862 
     13 C13        30.2724   -4.9110   -4.9387 C.ar      12 UNK        -0.0733 
     14 C14        29.9188   -5.4982   -3.7209 C.ar      12 UNK        -0.0832 
     15 C15        29.6325   -5.4110   -6.2314 C.3       12 UNK         0.0240 
     16 S16        29.1032   -4.0805   -7.3585 S.3       12 UNK        -0.2522 
     17 C17        27.6617   -3.3908   -6.4795 C.3       12 UNK        -0.0967 
     18 CA         27.0827   -2.1630   -7.2271 C.3       5 UNK         0.0660 
     19 N          25.6744   -1.9189   -6.8974 N.am      5 UNK        -0.4015 
     20 C          24.8562   -1.1367   -7.6174 C.2       4 UNK         0.4946 
     21 O          25.2005   -0.5327   -8.6318 O.2       4 UNK        -0.5353 
     22 CA         23.4192   -0.9645   -7.1009 C.3       4 UNK         0.0277 
     23 CB         22.6034   -2.2536   -7.2930 C.3       4 UNK        -0.1981 
     24 N          23.3728   -0.5484   -5.6994 N.am      4 UNK        -0.4209 
     25 C          23.8692    0.6064   -5.2329 C.2       3 UNK         0.4942 
     26 O          24.3812    1.4732   -5.9404 O.2       3 UNK        -0.5208 
     27 CA         23.8185    0.8176   -3.7106 C.3       3 UNK         0.0250 
     28 CB         22.4781    1.4512   -3.3042 C.3       3 UNK        -0.1990 
     29 N          24.0534   -0.3877   -2.9045 N.am      3 UNK        -0.4232 
     30 C          25.0943   -1.2249   -3.0214 C.2       2 UNK         0.4993 
     31 O          25.9279   -1.1804   -3.9308 O.2       2 UNK        -0.5286 
     32 CA         25.2074   -2.3251   -1.9547 C.3       2 UNK         0.0209 
     33 CB         24.5024   -3.6048   -2.4322 C.3       2 UNK        -0.1931 
     34 N          26.6074   -2.6344   -1.6604 N.am      2 UNK        -0.4546 
     35 C          27.4896   -1.7773   -1.1292 C.2       1 UNK         0.5154 
     36 O          27.1813   -0.6574   -0.7121 O.2       1 UNK        -0.5181 
     37 C          27.9410   -0.9040   -7.0050 C.2       5 UNK         0.5014 
     38 O          28.7839   -0.5856   -7.8469 O.2       5 UNK        -0.5248 
     39 N          27.6809   -0.1858   -5.9018 N.am      6 UNK        -0.4434 
     40 CA         28.3441    1.0709   -5.5535 C.3       6 UNK         0.0363 
     41 CB         27.8451    1.5655   -4.1885 C.3       6 UNK        -0.1936 
     42 C          28.1868    2.1618   -6.6265 C.2       6 UNK         0.5081 
     43 O          29.1277    2.9262   -6.8399 O.2       6 UNK        -0.5248 
     44 N          27.0305    2.1841   -7.3024 N.am      7 UNK        -0.4718 
     45 CA         26.7811    3.0004   -8.4854 C.3       7 UNK         0.0273 
     46 CB         25.2688    3.2324   -8.6443 C.3       7 UNK        -0.1935 
     47 C          27.3844    2.3670   -9.7499 C.2       7 UNK         0.5018 
     48 O          28.2441    2.9857  -10.3772 O.2       7 UNK        -0.5186 
     49 N          26.9183    1.1623  -10.1161 N.am      8 UNK        -0.4240 
     50 CA         27.1795    0.5228  -11.4123 C.3       8 UNK         0.0235 
     51 CB         26.3136   -0.7385  -11.5602 C.3       8 UNK        -0.2000 
     52 C          28.6524    0.1871  -11.6845 C.2       8 UNK         0.4941 
     53 O          29.1064    0.3715  -12.8146 O.2       8 UNK        -0.5273 
     54 N          29.3722   -0.2863  -10.6598 N.am      9 UNK        -0.4262 
     55 CA         30.8022   -0.5956  -10.7394 C.3       9 UNK         0.0264 
     56 CB         31.0792   -1.8852   -9.9452 C.3       9 UNK        -0.1955 
     57 C          31.6748    0.5651  -10.2294 C.2       9 UNK         0.5031 
     58 O          32.8974    0.4172  -10.2039 O.2       9 UNK        -0.5390 
     59 N          31.0471    1.6758   -9.8044 N.am      10 UNK        -0.4204 
     60 CA         31.6469    2.8404   -9.1380 C.3       10 UNK         0.0237 
     61 CB         32.5505    3.6265  -10.1118 C.3       10 UNK        -0.1985 
     62 C          32.3589    2.4765   -7.8168 C.2       10 UNK         0.4970 
     63 O          33.3348    3.1300   -7.4433 O.2       10 UNK        -0.4914 
     64 N          31.8668    1.4259   -7.1465 N.am      11 UNK        -0.4285 
     65 CA         32.4404    0.8547   -5.9215 C.3       11 UNK         0.1007 
     66 C          32.1683    1.6741   -4.6260 C.2       11 UNK         0.5703 
     67 N          31.3232    2.6987   -4.6505 N.am      11 UNK        -0.7361 
     68 O          32.7403    1.3785   -3.5807 O.2       11 UNK        -0.4986 
     69 C69        32.0452   -0.6437   -5.7779 C.3       12 UNK        -0.0947 
     70 S70        33.4651   -1.6941   -5.3238 S.3       12 UNK        -0.2240 
     71 C71        32.9270   -2.3754   -3.7187 C.3       12 UNK         0.0194 
     72 H72        30.7275    1.6806    0.0802 H         1 UNK         0.0906 
     73 H73        32.0772    0.6099    0.4677 H         1 UNK         0.0906 
     74 H74        31.5427    0.7868   -1.2035 H         1 UNK         0.0906 
     75 H75        30.3113   -0.8973   -1.9106 H         1 UNK         0.3140 
     76 H76        29.1355   -2.7060   -2.0713 H         1 UNK         0.1085 
     77 H77        30.2577   -3.4358    0.2215 H         1 UNK         0.0836 
     78 H78        28.7066   -3.1073    0.9257 H         1 UNK         0.0836 
     79 H79        30.9548   -5.6636   -0.4858 H         1 UNK         0.0731 
     80 H80        29.9900   -6.8166   -1.3685 H         1 UNK         0.0731 
     81 H81        31.9770   -3.7755   -1.6460 H         1 UNK         0.1312 
     82 H82        31.5211   -3.4720   -5.9059 H         1 UNK         0.1406 
     83 H83        29.1710   -6.2796   -3.6944 H         1 UNK         0.1631 
     84 H84        28.7743   -6.0513   -6.0209 H         1 UNK         0.0717 
     85 H85        30.3595   -6.0347   -6.7529 H         1 UNK         0.0717 
     86 H86        26.9123   -4.1816   -6.4189 H         1 UNK         0.0934 
     87 H87        27.9309   -3.1470   -5.4491 H         1 UNK         0.0934 
     88 H88        27.1098   -2.3794   -8.2979 H         1 UNK         0.0739 
     89 H89        25.3384   -2.3023   -6.0257 H         1 UNK         0.3093 
     90 H90        22.9506   -0.1765   -7.6947 H         1 UNK         0.0818 
     91 H91        21.5568   -2.1023   -7.0279 H         1 UNK         0.0819 
     92 H92        22.6271   -2.5772   -8.3347 H         1 UNK         0.0819 
     93 H93        22.9866   -3.0758   -6.6876 H         1 UNK         0.0819 
     94 H94        22.9718   -1.1966   -5.0378 H         1 UNK         0.3041 
     95 H95        24.6101    1.5243   -3.4579 H         1 UNK         0.0784 
     96 H96        22.2869    2.3608   -3.8758 H         1 UNK         0.0793 
     97 H97        21.6407    0.7745   -3.4791 H         1 UNK         0.0793 
     98 H98        22.4722    1.7287   -2.2499 H         1 UNK         0.0793 
     99 H99        23.4116   -0.5319   -2.1379 H         1 UNK         0.3024 
    100 H100       24.7380   -1.9773   -1.0317 H         1 UNK         0.1171 
    101 H101       23.4462   -3.4202   -2.6330 H         1 UNK         0.0786 
    102 H102       24.5536   -4.3907   -1.6781 H         1 UNK         0.0786 
    103 H103       24.9465   -3.9921   -3.3504 H         1 UNK         0.0786 
    104 H104       26.9415   -3.5403   -1.9581 H         1 UNK         0.2977 
    105 H105       26.9804   -0.5298   -5.2445 H         1 UNK         0.3127 
    106 H106       29.4062    0.8474   -5.4656 H         1 UNK         0.0770 
    107 H107       26.7856    1.8162   -4.2200 H         1 UNK         0.0814 
    108 H108       28.3830    2.4622   -3.8784 H         1 UNK         0.0814 
    109 H109       27.9906    0.8139   -3.4121 H         1 UNK         0.0814 
    110 H110       26.2880    1.5550   -7.0182 H         1 UNK         0.2983 
    111 H111       27.2538    3.9754   -8.3453 H         1 UNK         0.0947 
    112 H112       25.0544    3.8257   -9.5342 H         1 UNK         0.0806 
    113 H113       24.8628    3.7721   -7.7886 H         1 UNK         0.0806 
    114 H114       24.7174    2.2954   -8.7329 H         1 UNK         0.0806 
    115 H115       26.2513    0.6833   -9.5120 H         1 UNK         0.3000 
    116 H116       26.8666    1.2317  -12.1819 H         1 UNK         0.0850 
    117 H117       26.4568   -1.2001  -12.5381 H         1 UNK         0.0810 
    118 H118       25.2529   -0.5056  -11.4647 H         1 UNK         0.0810 
    119 H119       26.5612   -1.4871  -10.8066 H         1 UNK         0.0810 
    120 H120       28.9409   -0.3944   -9.7434 H         1 UNK         0.3040 
    121 H121       31.0895   -0.7793  -11.7767 H         1 UNK         0.0766 
    122 H122       32.1214   -2.1909  -10.0444 H         1 UNK         0.0812 
    123 H123       30.4650   -2.7117  -10.3028 H         1 UNK         0.0812 
    124 H124       30.8797   -1.7598   -8.8815 H         1 UNK         0.0812 
    125 H125       30.0410    1.7190   -9.9161 H         1 UNK         0.3205 
    126 H126       30.8164    3.4927   -8.8647 H         1 UNK         0.0754 
    127 H127       32.8824    4.5653   -9.6666 H         1 UNK         0.0769 
    128 H128       32.0190    3.8758  -11.0302 H         1 UNK         0.0769 
    129 H129       33.4431    3.0619  -10.3826 H         1 UNK         0.0769 
    130 H130       31.0407    0.9722   -7.5084 H         1 UNK         0.2981 
    131 H131       33.5223    0.9048   -6.0588 H         1 UNK         0.0541 
    132 H132       30.8271    2.9389   -5.4992 H         1 UNK         0.3459 
    133 H133       31.1723    3.2308   -3.8091 H         1 UNK         0.3459 
    134 H134       31.6731   -1.0382   -6.7244 H         1 UNK         0.0612 
    135 H135       31.2243   -0.7833   -5.0719 H         1 UNK         0.0612 
    136 H136       33.8119   -2.7745   -3.2211 H         1 UNK         0.0624 
    137 H137       32.5671   -1.5574   -3.0930 H         1 UNK         0.0624 
@<TRIPOS>BOND
     1    1    2 1    
     2    1   72 1    
     3    1   73 1    
     4    1   74 1    
     5    2    3 2    
     6    2    4 am   BACKBONE|DICT|INTERRES
     7    4    5 1    
     8    4   75 1    
     9    5    6 1    
    10    5   35 1    
    11    5   76 1    
    12    6    7 1    
    13    6   77 1    
    14    6   78 1    
    15    7    8 1    
    16    8    9 1    
    17    8   79 1    
    18    8   80 1    
    19    9   10 ar   
    20    9   14 ar   
    21   10   11 ar   
    22   10   81 1    
    23   11   12 ar   
    24   11   71 1    
    25   12   13 ar   
    26   12   82 1    
    27   13   14 ar   
    28   13   15 1    
    29   14   83 1    
    30   15   16 1    
    31   15   84 1    
    32   15   85 1    
    33   16   17 1    
    34   17   18 1    
    35   17   86 1    
    36   17   87 1    
    37   18   19 1    
    38   18   37 1    
    39   18   88 1    
    40   19   20 am   BACKBONE|DICT|INTERRES
    41   19   89 1    
    42   20   21 2    
    43   20   22 1    
    44   22   23 1    
    45   22   24 1    
    46   22   90 1    
    47   23   91 1    
    48   23   92 1    
    49   23   93 1    
    50   24   25 am   BACKBONE|DICT|INTERRES
    51   24   94 1    
    52   25   26 2    
    53   25   27 1    
    54   27   28 1    
    55   27   29 1    
    56   27   95 1    
    57   28   96 1    
    58   28   97 1    
    59   28   98 1    
    60   29   30 am   BACKBONE|DICT|INTERRES
    61   29   99 1    
    62   30   31 2    
    63   30   32 1    
    64   32   33 1    
    65   32   34 1    
    66   32  100 1    
    67   33  101 1    
    68   33  102 1    
    69   33  103 1    
    70   34   35 am   BACKBONE|DICT|INTERRES
    71   34  104 1    
    72   35   36 2    
    73   37   38 2    
    74   37   39 am   BACKBONE|DICT|INTERRES
    75   39   40 1    
    76   39  105 1    
    77   40   41 1    
    78   40   42 1    
    79   40  106 1    
    80   41  107 1    
    81   41  108 1    
    82   41  109 1    
    83   42   43 2    
    84   42   44 am   BACKBONE|DICT|INTERRES
    85   44   45 1    
    86   44  110 1    
    87   45   46 1    
    88   45   47 1    
    89   45  111 1    
    90   46  112 1    
    91   46  113 1    
    92   46  114 1    
    93   47   48 2    
    94   47   49 am   BACKBONE|DICT|INTERRES
    95   49   50 1    
    96   49  115 1    
    97   50   51 1    
    98   50   52 1    
    99   50  116 1    
   100   51  117 1    
   101   51  118 1    
   102   51  119 1    
   103   52   53 2    
   104   52   54 am   BACKBONE|DICT|INTERRES
   105   54   55 1    
   106   54  120 1    
   107   55   56 1    
   108   55   57 1    
   109   55  121 1    
   110   56  122 1    
   111   56  123 1    
   112   56  124 1    
   113   57   58 2    
   114   57   59 am   BACKBONE|DICT|INTERRES
   115   59   60 1    
   116   59  125 1    
   117   60   61 1    
   118   60   62 1    
   119   60  126 1    
   120   61  127 1    
   121   61  128 1    
   122   61  129 1    
   123   62   63 2    
   124   62   64 am   BACKBONE|DICT|INTERRES
   125   64   65 1    
   126   64  130 1    
   127   65   66 1    
   128   65   69 1    
   129   65  131 1    
   130   66   67 am   BACKBONE|DICT|INTERRES
   131   66   68 2    
   132   67  132 1    
   133   67  133 1    
   134   69   70 1    
   135   69  134 1    
   136   69  135 1    
   137   70   71 1    
   138   71  136 1    
   139   71  137 1    
@<TRIPOS>SUBSTRUCTURE
     1 UNK         1 GROUP             0       ****    0 ROOT    
