@<TRIPOS>MOLECULE
3R137
137   139    1
SMALL
USER_CHARGES


@<TRIPOS>ATOM
      1 CA         22.8714   -5.8969   -0.9291 C.3       0 UNK        -0.2020 
      2 C          24.1678   -5.2015   -0.5422 C.2       0 UNK         0.4855 
      3 O          24.1838   -4.4152    0.4059 O.2       0 UNK        -0.5197 
      4 N          25.2580   -5.4763   -1.2703 N.am      1 UNK        -0.4892 
      5 CA         26.5804   -4.8758   -1.0699 C.3       1 UNK         0.0835 
      6 C6         27.6979   -5.8036   -1.6108 C.3       12 UNK        -0.0855 
      7 S7         29.3767   -5.2676   -1.1184 S.3       12 UNK        -0.2931 
      8 C8         30.0666   -4.7578   -2.7306 C.3       12 UNK         0.0378 
      9 C9         30.8254   -3.4349   -2.6908 C.ar      12 UNK        -0.0802 
     10 C10        32.0162   -3.3100   -3.4117 C.ar      12 UNK        -0.0944 
     11 C11        32.6895   -2.0851   -3.4789 C.ar      12 UNK        -0.0787 
     12 C12        32.1830   -0.9908   -2.7727 C.ar      12 UNK        -0.0862 
     13 C13        30.9962   -1.0976   -2.0417 C.ar      12 UNK        -0.0733 
     14 C14        30.3171   -2.3192   -2.0135 C.ar      12 UNK        -0.0832 
     15 C15        30.4633    0.1000   -1.2640 C.3       12 UNK         0.0240 
     16 S16        29.0993    0.9562   -2.1182 S.3       12 UNK        -0.2522 
     17 C17        29.9340    1.6850   -3.5692 C.3       12 UNK        -0.0967 
     18 CA         29.1913    1.4817   -4.9151 C.3       5 UNK         0.0660 
     19 N          28.6356    0.1363   -5.0871 N.am      5 UNK        -0.4015 
     20 C          28.3993   -0.4303   -6.2773 C.2       4 UNK         0.4946 
     21 O          28.6594    0.1063   -7.3549 O.2       4 UNK        -0.5353 
     22 CA         27.7278   -1.8126   -6.2659 C.3       4 UNK         0.0277 
     23 CB         28.7295   -2.9048   -5.8678 C.3       4 UNK        -0.1981 
     24 N          26.5540   -1.8637   -5.3915 N.am      4 UNK        -0.4209 
     25 C          25.4054   -1.2185   -5.6529 C.2       3 UNK         0.4942 
     26 O          25.2360   -0.5050   -6.6407 O.2       3 UNK        -0.5208 
     27 CA         24.2529   -1.3646   -4.6407 C.3       3 UNK         0.0250 
     28 CB         23.3645   -2.5624   -5.0119 C.3       3 UNK        -0.1990 
     29 N          24.6953   -1.5056   -3.2535 N.am      3 UNK        -0.4232 
     30 C          25.4867   -0.6443   -2.6003 C.2       2 UNK         0.4993 
     31 O          25.8697    0.4232   -3.0773 O.2       2 UNK        -0.5286 
     32 CA         25.9731   -1.0602   -1.2013 C.3       2 UNK         0.0209 
     33 CB         25.1397   -0.3592   -0.1173 C.3       2 UNK        -0.1931 
     34 N          25.9884   -2.5055   -0.9379 N.am      2 UNK        -0.4546 
     35 C          26.6060   -3.4498   -1.6631 C.2       1 UNK         0.5154 
     36 O          27.1300   -3.2362   -2.7591 O.2       1 UNK        -0.5181 
     37 C          28.1615    2.5908   -5.2079 C.2       5 UNK         0.5014 
     38 O          28.5709    3.6714   -5.6343 O.2       5 UNK        -0.5248 
     39 N          26.8583    2.3166   -5.0335 N.am      6 UNK        -0.4434 
     40 CA         25.7740    3.1953   -5.4857 C.3       6 UNK         0.0363 
     41 CB         24.4291    2.7207   -4.9157 C.3       6 UNK        -0.1936 
     42 C          25.7088    3.3001   -7.0204 C.2       6 UNK         0.5081 
     43 O          25.5167    4.3999   -7.5398 O.2       6 UNK        -0.5248 
     44 N          25.8973    2.1695   -7.7193 N.am      7 UNK        -0.4718 
     45 CA         26.0393    2.1152   -9.1779 C.3       7 UNK         0.0273 
     46 CB         25.9111    0.6604   -9.6580 C.3       7 UNK        -0.1935 
     47 C          27.3633    2.7273   -9.6667 C.2       7 UNK         0.5018 
     48 O          27.3973    3.2916  -10.7606 O.2       7 UNK        -0.5186 
     49 N          28.4262    2.5889   -8.8600 N.am      8 UNK        -0.4240 
     50 CA         29.7871    3.1298   -8.9991 C.3       8 UNK         0.0235 
     51 CB         29.7788    4.6682   -9.0804 C.3       8 UNK        -0.2000 
     52 C          30.6122    2.5148  -10.1421 C.2       8 UNK         0.4941 
     53 O          31.8109    2.2985   -9.9690 O.2       8 UNK        -0.5273 
     54 N          29.9697    2.2104  -11.2756 N.am      9 UNK        -0.4262 
     55 CA         30.5587    1.4862  -12.4039 C.3       9 UNK         0.0264 
     56 CB         29.6253    1.5990  -13.6198 C.3       9 UNK        -0.1955 
     57 C          30.8459    0.0088  -12.0786 C.2       9 UNK         0.5031 
     58 O          31.7645   -0.5684  -12.6618 O.2       9 UNK        -0.5390 
     59 N          30.0575   -0.5744  -11.1640 N.am      10 UNK        -0.4204 
     60 CA         30.1958   -1.9573  -10.7079 C.3       10 UNK         0.0237 
     61 CB         28.8797   -2.4165  -10.0621 C.3       10 UNK        -0.1985 
     62 C          31.3777   -2.1557   -9.7443 C.2       10 UNK         0.4970 
     63 O          32.0444   -3.1876   -9.8294 O.2       10 UNK        -0.4914 
     64 N          31.6211   -1.1830   -8.8568 N.am      11 UNK        -0.4285 
     65 CA         32.7117   -1.1994   -7.8764 C.3       11 UNK         0.1007 
     66 C          32.9993    0.2366   -7.3767 C.2       11 UNK         0.5703 
     67 N          34.2624    0.6332   -7.3016 N.am      11 UNK        -0.7361 
     68 O          32.0878    0.9779   -7.0199 O.2       11 UNK        -0.4986 
     69 C69        32.4191   -2.1697   -6.7001 C.3       12 UNK        -0.0947 
     70 S70        33.9361   -2.8053   -5.9092 S.3       12 UNK        -0.2240 
     71 C71        33.9579   -1.9155   -4.3135 C.3       12 UNK         0.0194 
     72 H72        23.0037   -6.5639   -1.7807 H         1 UNK         0.0906 
     73 H73        22.4982   -6.4860   -0.0918 H         1 UNK         0.0906 
     74 H74        22.1136   -5.1588   -1.1907 H         1 UNK         0.0906 
     75 H75        25.1812   -6.1112   -2.0530 H         1 UNK         0.3140 
     76 H76        26.7472   -4.7772    0.0058 H         1 UNK         0.1085 
     77 H77        27.6210   -5.9180   -2.6933 H         1 UNK         0.0836 
     78 H78        27.5596   -6.8071   -1.2050 H         1 UNK         0.0836 
     79 H79        29.2756   -4.6579   -3.4725 H         1 UNK         0.0731 
     80 H80        30.7129   -5.5613   -3.0870 H         1 UNK         0.0731 
     81 H81        32.4037   -4.1628   -3.9516 H         1 UNK         0.1312 
     82 H82        32.7115   -0.0477   -2.8000 H         1 UNK         0.1406 
     83 H83        29.3890   -2.3989   -1.4659 H         1 UNK         0.1631 
     84 H84        31.2629    0.8142   -1.0608 H         1 UNK         0.0717 
     85 H85        30.1058   -0.2357   -0.2894 H         1 UNK         0.0717 
     86 H86        30.1138    2.7439   -3.3726 H         1 UNK         0.0934 
     87 H87        30.9277    1.2508   -3.6633 H         1 UNK         0.0934 
     88 H88        29.9499    1.6057   -5.6901 H         1 UNK         0.0739 
     89 H89        28.3777   -0.3493   -4.2395 H         1 UNK         0.3093 
     90 H90        27.3841   -2.0260   -7.2794 H         1 UNK         0.0818 
     91 H91        29.1624   -2.7124   -4.8865 H         1 UNK         0.0819 
     92 H92        28.2601   -3.8882   -5.8423 H         1 UNK         0.0819 
     93 H93        29.5486   -2.9555   -6.5848 H         1 UNK         0.0819 
     94 H94        26.6378   -2.4013   -4.5328 H         1 UNK         0.3041 
     95 H95        23.6453   -0.4604   -4.6977 H         1 UNK         0.0784 
     96 H96        23.0003   -2.4744   -6.0367 H         1 UNK         0.0793 
     97 H97        23.9069   -3.5060   -4.9384 H         1 UNK         0.0793 
     98 H98        22.4898   -2.6251   -4.3641 H         1 UNK         0.0793 
     99 H99        24.4455   -2.3610   -2.7801 H         1 UNK         0.3024 
    100 H100       27.0036   -0.7155   -1.1131 H         1 UNK         0.1171 
    101 H101       24.1033   -0.6995   -0.1232 H         1 UNK         0.0786 
    102 H102       25.1304    0.7214   -0.2691 H         1 UNK         0.0786 
    103 H103       25.5480   -0.5401    0.8772 H         1 UNK         0.0786 
    104 H104       25.4930   -2.8179   -0.1097 H         1 UNK         0.2977 
    105 H105       26.5876    1.4569   -4.5624 H         1 UNK         0.3127 
    106 H106       25.9709    4.1949   -5.0923 H         1 UNK         0.0770 
    107 H107       24.1617    1.7331   -5.2886 H         1 UNK         0.0814 
    108 H108       23.6258    3.4026   -5.1973 H         1 UNK         0.0814 
    109 H109       24.4508    2.6766   -3.8268 H         1 UNK         0.0814 
    110 H110       25.9611    1.2855   -7.2227 H         1 UNK         0.2983 
    111 H111       25.2266    2.6947   -9.6213 H         1 UNK         0.0947 
    112 H112       26.0078    0.5944  -10.7425 H         1 UNK         0.0806 
    113 H113       24.9396    0.2425   -9.3935 H         1 UNK         0.0806 
    114 H114       26.6770    0.0197   -9.2202 H         1 UNK         0.0806 
    115 H115       28.3016    1.9806   -8.0566 H         1 UNK         0.3000 
    116 H116       30.2964    2.8565   -8.0732 H         1 UNK         0.0850 
    117 H117       30.7958    5.0623   -9.0723 H         1 UNK         0.0810 
    118 H118       29.2551    5.1033   -8.2287 H         1 UNK         0.0810 
    119 H119       29.2988    5.0284   -9.9906 H         1 UNK         0.0810 
    120 H120       28.9940    2.4898  -11.3468 H         1 UNK         0.3040 
    121 H121       31.5098    1.9611  -12.6544 H         1 UNK         0.0766 
    122 H122       29.4710    2.6396  -13.9059 H         1 UNK         0.0812 
    123 H123       28.6478    1.1569  -13.4224 H         1 UNK         0.0812 
    124 H124       30.0475    1.0854  -14.4849 H         1 UNK         0.0812 
    125 H125       29.3297   -0.0202  -10.7384 H         1 UNK         0.3205 
    126 H126       30.3767   -2.5886  -11.5809 H         1 UNK         0.0754 
    127 H127       28.9607   -3.4371   -9.6850 H         1 UNK         0.0769 
    128 H128       28.0589   -2.3999  -10.7793 H         1 UNK         0.0769 
    129 H129       28.6041   -1.7784   -9.2248 H         1 UNK         0.0769 
    130 H130       31.0421   -0.3540   -8.8345 H         1 UNK         0.2981 
    131 H131       33.5997   -1.5494   -8.4075 H         1 UNK         0.0541 
    132 H132       35.0183    0.0236   -7.5712 H         1 UNK         0.3459 
    133 H133       34.4611    1.5635   -6.9700 H         1 UNK         0.3459 
    134 H134       31.7498   -1.7125   -5.9694 H         1 UNK         0.0612 
    135 H135       31.8916   -3.0531   -7.0603 H         1 UNK         0.0612 
    136 H136       34.1377   -0.8593   -4.5203 H         1 UNK         0.0624 
    137 H137       34.8094   -2.2668   -3.7298 H         1 UNK         0.0624 
@<TRIPOS>BOND
     1    1    2 1    
     2    1   72 1    
     3    1   73 1    
     4    1   74 1    
     5    2    3 2    
     6    2    4 am   BACKBONE|DICT|INTERRES
     7    4    5 1    
     8    4   75 1    
     9    5    6 1    
    10    5   35 1    
    11    5   76 1    
    12    6    7 1    
    13    6   77 1    
    14    6   78 1    
    15    7    8 1    
    16    8    9 1    
    17    8   79 1    
    18    8   80 1    
    19    9   10 ar   
    20    9   14 ar   
    21   10   11 ar   
    22   10   81 1    
    23   11   12 ar   
    24   11   71 1    
    25   12   13 ar   
    26   12   82 1    
    27   13   14 ar   
    28   13   15 1    
    29   14   83 1    
    30   15   16 1    
    31   15   84 1    
    32   15   85 1    
    33   16   17 1    
    34   17   18 1    
    35   17   86 1    
    36   17   87 1    
    37   18   19 1    
    38   18   37 1    
    39   18   88 1    
    40   19   20 am   BACKBONE|DICT|INTERRES
    41   19   89 1    
    42   20   21 2    
    43   20   22 1    
    44   22   23 1    
    45   22   24 1    
    46   22   90 1    
    47   23   91 1    
    48   23   92 1    
    49   23   93 1    
    50   24   25 am   BACKBONE|DICT|INTERRES
    51   24   94 1    
    52   25   26 2    
    53   25   27 1    
    54   27   28 1    
    55   27   29 1    
    56   27   95 1    
    57   28   96 1    
    58   28   97 1    
    59   28   98 1    
    60   29   30 am   BACKBONE|DICT|INTERRES
    61   29   99 1    
    62   30   31 2    
    63   30   32 1    
    64   32   33 1    
    65   32   34 1    
    66   32  100 1    
    67   33  101 1    
    68   33  102 1    
    69   33  103 1    
    70   34   35 am   BACKBONE|DICT|INTERRES
    71   34  104 1    
    72   35   36 2    
    73   37   38 2    
    74   37   39 am   BACKBONE|DICT|INTERRES
    75   39   40 1    
    76   39  105 1    
    77   40   41 1    
    78   40   42 1    
    79   40  106 1    
    80   41  107 1    
    81   41  108 1    
    82   41  109 1    
    83   42   43 2    
    84   42   44 am   BACKBONE|DICT|INTERRES
    85   44   45 1    
    86   44  110 1    
    87   45   46 1    
    88   45   47 1    
    89   45  111 1    
    90   46  112 1    
    91   46  113 1    
    92   46  114 1    
    93   47   48 2    
    94   47   49 am   BACKBONE|DICT|INTERRES
    95   49   50 1    
    96   49  115 1    
    97   50   51 1    
    98   50   52 1    
    99   50  116 1    
   100   51  117 1    
   101   51  118 1    
   102   51  119 1    
   103   52   53 2    
   104   52   54 am   BACKBONE|DICT|INTERRES
   105   54   55 1    
   106   54  120 1    
   107   55   56 1    
   108   55   57 1    
   109   55  121 1    
   110   56  122 1    
   111   56  123 1    
   112   56  124 1    
   113   57   58 2    
   114   57   59 am   BACKBONE|DICT|INTERRES
   115   59   60 1    
   116   59  125 1    
   117   60   61 1    
   118   60   62 1    
   119   60  126 1    
   120   61  127 1    
   121   61  128 1    
   122   61  129 1    
   123   62   63 2    
   124   62   64 am   BACKBONE|DICT|INTERRES
   125   64   65 1    
   126   64  130 1    
   127   65   66 1    
   128   65   69 1    
   129   65  131 1    
   130   66   67 am   BACKBONE|DICT|INTERRES
   131   66   68 2    
   132   67  132 1    
   133   67  133 1    
   134   69   70 1    
   135   69  134 1    
   136   69  135 1    
   137   70   71 1    
   138   71  136 1    
   139   71  137 1    
@<TRIPOS>SUBSTRUCTURE
     1 UNK         1 GROUP             0       ****    0 ROOT    
