@<TRIPOS>MOLECULE
3R137
137   139    1
SMALL
USER_CHARGES


@<TRIPOS>ATOM
      1 CA         25.0561   -7.3249    0.6111 C.3       0 UNK        -0.2020 
      2 C          25.5663   -5.9143    0.8646 C.2       0 UNK         0.4855 
      3 O          25.1086   -5.2576    1.8001 O.2       0 UNK        -0.5197 
      4 N          26.5125   -5.4445    0.0397 N.am      1 UNK        -0.4892 
      5 CA         27.1007   -4.0981    0.1174 C.3       1 UNK         0.0835 
      6 C6         28.4173   -4.0116   -0.6990 C.3       12 UNK        -0.0855 
      7 S7         29.7178   -3.0526    0.1493 S.3       12 UNK        -0.2931 
      8 C8         31.2306   -3.8139   -0.5310 C.3       12 UNK         0.0378 
      9 C9         31.4635   -3.3912   -1.9747 C.ar      12 UNK        -0.0802 
     10 C10        32.3031   -2.3098   -2.2667 C.ar      12 UNK        -0.0944 
     11 C11        32.4785   -1.8892   -3.5886 C.ar      12 UNK        -0.0787 
     12 C12        31.8175   -2.5626   -4.6165 C.ar      12 UNK        -0.0862 
     13 C13        30.9489   -3.6196   -4.3356 C.ar      12 UNK        -0.0733 
     14 C14        30.8052   -4.0539   -3.0166 C.ar      12 UNK        -0.0832 
     15 C15        30.1090   -4.2378   -5.4460 C.3       12 UNK         0.0240 
     16 S16        28.3714   -3.6698   -5.3737 S.3       12 UNK        -0.2522 
     17 C17        28.5432   -1.8523   -5.4470 C.3       12 UNK        -0.0967 
     18 CA         27.7583   -1.2093   -6.6117 C.3       5 UNK         0.0660 
     19 N          26.3093   -1.2653   -6.3957 N.am      5 UNK        -0.4015 
     20 C          25.3926   -0.9281   -7.3162 C.2       4 UNK         0.4946 
     21 O          25.6714   -0.5840   -8.4639 O.2       4 UNK        -0.5353 
     22 CA         23.9186   -0.9095   -6.8711 C.3       4 UNK         0.0277 
     23 CB         23.2890   -2.3013   -7.0380 C.3       4 UNK        -0.1981 
     24 N          23.7330   -0.4512   -5.4919 N.am      4 UNK        -0.4209 
     25 C          24.1580    0.7223   -5.0007 C.2       3 UNK         0.4942 
     26 O          24.6726    1.5991   -5.6938 O.2       3 UNK        -0.5208 
     27 CA         24.0422    0.9494   -3.4817 C.3       3 UNK         0.0250 
     28 CB         22.9342    1.9707   -3.1782 C.3       3 UNK        -0.1990 
     29 N          23.8098   -0.2652   -2.6892 N.am      3 UNK        -0.4232 
     30 C          24.6326   -1.3212   -2.6071 C.2       2 UNK         0.4993 
     31 O          25.6882   -1.4243   -3.2387 O.2       2 UNK        -0.5286 
     32 CA         24.1267   -2.4866   -1.7415 C.3       2 UNK         0.0209 
     33 CB         23.1459   -3.3574   -2.5460 C.3       2 UNK        -0.1931 
     34 N          25.2054   -3.3402   -1.2448 N.am      2 UNK        -0.4546 
     35 C          26.0959   -3.0000   -0.3016 C.2       1 UNK         0.5154 
     36 O          26.1153   -1.9017    0.2571 O.2       1 UNK        -0.5181 
     37 C          28.2557    0.2334   -6.8400 C.2       5 UNK         0.5014 
     38 O          29.1237    0.4451   -7.6892 O.2       5 UNK        -0.5248 
     39 N          27.7059    1.1962   -6.0860 N.am      6 UNK        -0.4434 
     40 CA         28.0258    2.6188   -6.2118 C.3       6 UNK         0.0363 
     41 CB         27.5498    3.3797   -4.9638 C.3       6 UNK        -0.1936 
     42 C          27.4286    3.2229   -7.4908 C.2       6 UNK         0.5081 
     43 O          28.1119    3.9897   -8.1677 O.2       6 UNK        -0.5248 
     44 N          26.1900    2.8316   -7.8244 N.am      7 UNK        -0.4718 
     45 CA         25.4947    3.2114   -9.0581 C.3       7 UNK         0.0273 
     46 CB         24.0394    2.7218   -9.0003 C.3       7 UNK        -0.1935 
     47 C          26.1968    2.6906  -10.3247 C.2       7 UNK         0.5018 
     48 O          26.3000    3.4281  -11.3054 O.2       7 UNK        -0.5186 
     49 N          26.6959    1.4474  -10.2694 N.am      8 UNK        -0.4240 
     50 CA         27.5097    0.8279  -11.3190 C.3       8 UNK         0.0235 
     51 CB         27.5337   -0.6941  -11.0987 C.3       8 UNK        -0.2000 
     52 C          28.9505    1.3690  -11.3876 C.2       8 UNK         0.4941 
     53 O          29.6167    1.1402  -12.3980 O.2       8 UNK        -0.5273 
     54 N          29.4095    2.0402  -10.3186 N.am      9 UNK        -0.4262 
     55 CA         30.7778    2.5132  -10.0746 C.3       9 UNK         0.0264 
     56 CB         31.1594    3.6415  -11.0559 C.3       9 UNK        -0.1955 
     57 C          31.7854    1.3474  -10.0601 C.2       9 UNK         0.5031 
     58 O          32.8041    1.3921  -10.7530 O.2       9 UNK        -0.5390 
     59 N          31.4524    0.3026   -9.2892 N.am      10 UNK        -0.4204 
     60 CA         32.1850   -0.9648   -9.2265 C.3       10 UNK         0.0237 
     61 CB         31.3060   -2.0156   -8.5311 C.3       10 UNK        -0.1985 
     62 C          33.5785   -0.8743   -8.5747 C.2       10 UNK         0.4970 
     63 O          34.4222   -1.7202   -8.8750 O.2       10 UNK        -0.4914 
     64 N          33.8047    0.1378   -7.7278 N.am      11 UNK        -0.4285 
     65 CA         35.1250    0.5071   -7.1950 C.3       11 UNK         0.1007 
     66 C          35.5431    1.8809   -7.7763 C.2       11 UNK         0.5703 
     67 N          36.8102    2.0510   -8.1282 N.am      11 UNK        -0.7361 
     68 O          34.7366    2.8049   -7.8740 O.2       11 UNK        -0.4986 
     69 C69        35.1572    0.5463   -5.6440 C.3       12 UNK        -0.0947 
     70 S70        34.7876   -1.0726   -4.8883 S.3       12 UNK        -0.2240 
     71 C71        33.3064   -0.6580   -3.9187 C.3       12 UNK         0.0194 
     72 H72        25.5516   -7.7928   -0.2395 H         1 UNK         0.0906 
     73 H73        23.9851   -7.3058    0.4109 H         1 UNK         0.0906 
     74 H74        25.2276   -7.9488    1.4878 H         1 UNK         0.0906 
     75 H75        26.8545   -6.0363   -0.7046 H         1 UNK         0.3140 
     76 H76        27.3306   -3.9234    1.1713 H         1 UNK         0.1085 
     77 H77        28.2554   -3.5973   -1.6971 H         1 UNK         0.0836 
     78 H78        28.8153   -5.0145   -0.8588 H         1 UNK         0.0836 
     79 H79        32.0798   -3.5157    0.0859 H         1 UNK         0.0731 
     80 H80        31.1718   -4.9008   -0.4566 H         1 UNK         0.0731 
     81 H81        32.7954   -1.7792   -1.4630 H         1 UNK         0.1312 
     82 H82        31.9464   -2.2221   -5.6327 H         1 UNK         0.1406 
     83 H83        30.1382   -4.8764   -2.8015 H         1 UNK         0.1631 
     84 H84        30.1320   -5.3250   -5.3600 H         1 UNK         0.0717 
     85 H85        30.5241   -3.9997   -6.4259 H         1 UNK         0.0717 
     86 H86        28.2271   -1.4384   -4.4872 H         1 UNK         0.0934 
     87 H87        29.5965   -1.5986   -5.5407 H         1 UNK         0.0934 
     88 H88        27.9790   -1.7664   -7.5251 H         1 UNK         0.0739 
     89 H89        26.0042   -1.5214   -5.4637 H         1 UNK         0.3093 
     90 H90        23.3867   -0.2123   -7.5209 H         1 UNK         0.0818 
     91 H91        22.2218   -2.2844   -6.8159 H         1 UNK         0.0819 
     92 H92        23.3983   -2.6572   -8.0636 H         1 UNK         0.0819 
     93 H93        23.7574   -3.0394   -6.3854 H         1 UNK         0.0819 
     94 H94        23.3142   -1.1058   -4.8487 H         1 UNK         0.3041 
     95 H95        24.9943    1.3726   -3.1547 H         1 UNK         0.0784 
     96 H96        23.0971    2.8993   -3.7277 H         1 UNK         0.0793 
     97 H97        21.9498    1.5946   -3.4598 H         1 UNK         0.0793 
     98 H98        22.9076    2.2263   -2.1188 H         1 UNK         0.0793 
     99 H99        22.9516   -0.2837   -2.1560 H         1 UNK         0.3024 
    100 H100       23.6048   -2.0720   -0.8756 H         1 UNK         0.1171 
    101 H101       22.2914   -2.7752   -2.8935 H         1 UNK         0.0786 
    102 H102       22.7501   -4.1724   -1.9395 H         1 UNK         0.0786 
    103 H103       23.6220   -3.7948   -3.4250 H         1 UNK         0.0786 
    104 H104       25.2804   -4.2592   -1.6543 H         1 UNK         0.2977 
    105 H105       26.9580    0.9541   -5.4517 H         1 UNK         0.3127 
    106 H106       29.1120    2.7192   -6.2721 H         1 UNK         0.0770 
    107 H107       26.4668    3.3389   -4.8462 H         1 UNK         0.0814 
    108 H108       27.8284    4.4326   -5.0239 H         1 UNK         0.0814 
    109 H109       28.0016    2.9773   -4.0571 H         1 UNK         0.0814 
    110 H110       25.6788    2.2431   -7.1701 H         1 UNK         0.2983 
    111 H111       25.4873    4.3023   -9.1097 H         1 UNK         0.0947 
    112 H112       23.4828    3.0503   -9.8789 H         1 UNK         0.0806 
    113 H113       23.5230    3.1119   -8.1229 H         1 UNK         0.0806 
    114 H114       23.9818    1.6339   -8.9663 H         1 UNK         0.0806 
    115 H115       26.4879    0.8715   -9.4569 H         1 UNK         0.3000 
    116 H116       27.0381    1.0283  -12.2835 H         1 UNK         0.0850 
    117 H117       28.1045   -1.1962  -11.8811 H         1 UNK         0.0810 
    118 H118       26.5274   -1.1131  -11.1127 H         1 UNK         0.0810 
    119 H119       27.9910   -0.9536  -10.1427 H         1 UNK         0.0810 
    120 H120       28.7713    2.1647   -9.5434 H         1 UNK         0.3040 
    121 H121       30.7808    2.9362   -9.0687 H         1 UNK         0.0766 
    122 H122       31.2149    3.2855  -12.0850 H         1 UNK         0.0812 
    123 H123       30.4363    4.4564  -11.0207 H         1 UNK         0.0812 
    124 H124       32.1344    4.0609  -10.8047 H         1 UNK         0.0812 
    125 H125       30.5896    0.3587   -8.7465 H         1 UNK         0.3205 
    126 H126       32.3466   -1.2976  -10.2541 H         1 UNK         0.0754 
    127 H127       31.8430   -2.9549   -8.3915 H         1 UNK         0.0769 
    128 H128       30.4161   -2.2355   -9.1214 H         1 UNK         0.0769 
    129 H129       30.9734   -1.6710   -7.5540 H         1 UNK         0.0769 
    130 H130       33.0740    0.8187   -7.5832 H         1 UNK         0.2981 
    131 H131       35.8697   -0.2236   -7.5167 H         1 UNK         0.0541 
    132 H132       37.4826    1.3050   -8.0383 H         1 UNK         0.3459 
    133 H133       37.1000    2.9445   -8.4943 H         1 UNK         0.3459 
    134 H134       34.4691    1.3040   -5.2649 H         1 UNK         0.0612 
    135 H135       36.1486    0.8428   -5.2965 H         1 UNK         0.0612 
    136 H136       33.6091   -0.1317   -3.0122 H         1 UNK         0.0624 
    137 H137       32.6786    0.0319   -4.4849 H         1 UNK         0.0624 
@<TRIPOS>BOND
     1    1    2 1    
     2    1   72 1    
     3    1   73 1    
     4    1   74 1    
     5    2    3 2    
     6    2    4 am   BACKBONE|DICT|INTERRES
     7    4    5 1    
     8    4   75 1    
     9    5    6 1    
    10    5   35 1    
    11    5   76 1    
    12    6    7 1    
    13    6   77 1    
    14    6   78 1    
    15    7    8 1    
    16    8    9 1    
    17    8   79 1    
    18    8   80 1    
    19    9   10 ar   
    20    9   14 ar   
    21   10   11 ar   
    22   10   81 1    
    23   11   12 ar   
    24   11   71 1    
    25   12   13 ar   
    26   12   82 1    
    27   13   14 ar   
    28   13   15 1    
    29   14   83 1    
    30   15   16 1    
    31   15   84 1    
    32   15   85 1    
    33   16   17 1    
    34   17   18 1    
    35   17   86 1    
    36   17   87 1    
    37   18   19 1    
    38   18   37 1    
    39   18   88 1    
    40   19   20 am   BACKBONE|DICT|INTERRES
    41   19   89 1    
    42   20   21 2    
    43   20   22 1    
    44   22   23 1    
    45   22   24 1    
    46   22   90 1    
    47   23   91 1    
    48   23   92 1    
    49   23   93 1    
    50   24   25 am   BACKBONE|DICT|INTERRES
    51   24   94 1    
    52   25   26 2    
    53   25   27 1    
    54   27   28 1    
    55   27   29 1    
    56   27   95 1    
    57   28   96 1    
    58   28   97 1    
    59   28   98 1    
    60   29   30 am   BACKBONE|DICT|INTERRES
    61   29   99 1    
    62   30   31 2    
    63   30   32 1    
    64   32   33 1    
    65   32   34 1    
    66   32  100 1    
    67   33  101 1    
    68   33  102 1    
    69   33  103 1    
    70   34   35 am   BACKBONE|DICT|INTERRES
    71   34  104 1    
    72   35   36 2    
    73   37   38 2    
    74   37   39 am   BACKBONE|DICT|INTERRES
    75   39   40 1    
    76   39  105 1    
    77   40   41 1    
    78   40   42 1    
    79   40  106 1    
    80   41  107 1    
    81   41  108 1    
    82   41  109 1    
    83   42   43 2    
    84   42   44 am   BACKBONE|DICT|INTERRES
    85   44   45 1    
    86   44  110 1    
    87   45   46 1    
    88   45   47 1    
    89   45  111 1    
    90   46  112 1    
    91   46  113 1    
    92   46  114 1    
    93   47   48 2    
    94   47   49 am   BACKBONE|DICT|INTERRES
    95   49   50 1    
    96   49  115 1    
    97   50   51 1    
    98   50   52 1    
    99   50  116 1    
   100   51  117 1    
   101   51  118 1    
   102   51  119 1    
   103   52   53 2    
   104   52   54 am   BACKBONE|DICT|INTERRES
   105   54   55 1    
   106   54  120 1    
   107   55   56 1    
   108   55   57 1    
   109   55  121 1    
   110   56  122 1    
   111   56  123 1    
   112   56  124 1    
   113   57   58 2    
   114   57   59 am   BACKBONE|DICT|INTERRES
   115   59   60 1    
   116   59  125 1    
   117   60   61 1    
   118   60   62 1    
   119   60  126 1    
   120   61  127 1    
   121   61  128 1    
   122   61  129 1    
   123   62   63 2    
   124   62   64 am   BACKBONE|DICT|INTERRES
   125   64   65 1    
   126   64  130 1    
   127   65   66 1    
   128   65   69 1    
   129   65  131 1    
   130   66   67 am   BACKBONE|DICT|INTERRES
   131   66   68 2    
   132   67  132 1    
   133   67  133 1    
   134   69   70 1    
   135   69  134 1    
   136   69  135 1    
   137   70   71 1    
   138   71  136 1    
   139   71  137 1    
@<TRIPOS>SUBSTRUCTURE
     1 UNK         1 GROUP             0       ****    0 ROOT    
