@<TRIPOS>MOLECULE
3R137
137   139    1
SMALL
USER_CHARGES


@<TRIPOS>ATOM
      1 CA         26.8050   -4.8954   -7.2168 C.3       0 UNK        -0.2020 
      2 C          26.8889   -4.7305   -5.7074 C.2       0 UNK         0.4855 
      3 O          26.6136   -3.6417   -5.2082 O.2       0 UNK        -0.5197 
      4 N          27.2391   -5.8101   -4.9893 N.am      1 UNK        -0.4892 
      5 CA         27.5291   -5.9206   -3.5435 C.3       1 UNK         0.0835 
      6 C6         29.0255   -5.6749   -3.1932 C.3       12 UNK        -0.0855 
      7 S7         29.6710   -4.0163   -3.5961 S.3       12 UNK        -0.2931 
      8 C8         29.8733   -3.2681   -1.9524 C.3       12 UNK         0.0378 
      9 C9         30.6333   -1.9537   -2.0496 C.ar      12 UNK        -0.0802 
     10 C10        32.0209   -1.9700   -2.2182 C.ar      12 UNK        -0.0944 
     11 C11        32.7375   -0.7749   -2.3088 C.ar      12 UNK        -0.0787 
     12 C12        32.0594    0.4420   -2.2103 C.ar      12 UNK        -0.0862 
     13 C13        30.6689    0.4786   -2.0543 C.ar      12 UNK        -0.0733 
     14 C14        29.9619   -0.7278   -1.9701 C.ar      12 UNK        -0.0832 
     15 C15        29.9311    1.8120   -1.9453 C.3       12 UNK         0.0240 
     16 S16        30.5105    3.0467   -3.1639 S.3       12 UNK        -0.2522 
     17 C17        28.9543    3.7593   -3.7946 C.3       12 UNK        -0.0967 
     18 CA         28.5792    3.1753   -5.1782 C.3       5 UNK         0.0660 
     19 N          28.3897    1.7251   -5.1210 N.am      5 UNK        -0.4015 
     20 C          28.3391    0.9081   -6.1779 C.2       4 UNK         0.4946 
     21 O          28.5116    1.2720   -7.3406 O.2       4 UNK        -0.5353 
     22 CA         28.0153   -0.5678   -5.8989 C.3       4 UNK         0.0277 
     23 CB         29.3132   -1.3821   -5.8511 C.3       4 UNK        -0.1981 
     24 N          27.2155   -0.8133   -4.6891 N.am      4 UNK        -0.4209 
     25 C          26.0055   -0.2823   -4.4612 C.2       3 UNK         0.4942 
     26 O          25.4707    0.5181   -5.2329 O.2       3 UNK        -0.5208 
     27 CA         25.2927   -0.6836   -3.1605 C.3       3 UNK         0.0250 
     28 CB         23.9706    0.1038   -2.9807 C.3       3 UNK        -0.1990 
     29 N          25.0631   -2.1323   -3.1261 N.am      3 UNK        -0.4232 
     30 C          24.5577   -2.8038   -2.0783 C.2       2 UNK         0.4993 
     31 O          24.3108   -2.2895   -0.9865 O.2       2 UNK        -0.5286 
     32 CA         24.2600   -4.3020   -2.2656 C.3       2 UNK         0.0209 
     33 CB         22.9021   -4.5004   -2.9592 C.3       2 UNK        -0.1931 
     34 N          25.2966   -5.0074   -3.0160 N.am      2 UNK        -0.4546 
     35 C          26.5391   -5.2328   -2.5700 C.2       1 UNK         0.5154 
     36 O          26.8980   -4.9528   -1.4244 O.2       1 UNK        -0.5181 
     37 C          27.3509    3.9050   -5.7626 C.2       5 UNK         0.5014 
     38 O          27.5240    4.9403   -6.4067 O.2       5 UNK        -0.5248 
     39 N          26.1431    3.3639   -5.5411 N.am      6 UNK        -0.4434 
     40 CA         24.8913    3.8907   -6.0894 C.3       6 UNK         0.0363 
     41 CB         23.7281    3.5542   -5.1421 C.3       6 UNK        -0.1936 
     42 C          24.6239    3.3278   -7.4924 C.2       6 UNK         0.5081 
     43 O          24.1562    4.0630   -8.3618 O.2       6 UNK        -0.5248 
     44 N          24.9417    2.0408   -7.6938 N.am      7 UNK        -0.4718 
     45 CA         24.8058    1.3374   -8.9733 C.3       7 UNK         0.0273 
     46 CB         24.8800   -0.1768   -8.7166 C.3       7 UNK        -0.1935 
     47 C          25.8514    1.7500  -10.0276 C.2       7 UNK         0.5018 
     48 O          25.6517    1.4539  -11.2061 O.2       7 UNK        -0.5186 
     49 N          26.9433    2.3940   -9.5853 N.am      8 UNK        -0.4240 
     50 CA         28.1425    2.7624  -10.3491 C.3       8 UNK         0.0235 
     51 CB         27.8150    3.7881  -11.4554 C.3       8 UNK        -0.2000 
     52 C          28.8947    1.5200  -10.8658 C.2       8 UNK         0.4941 
     53 O          29.3426    1.4934  -12.0136 O.2       8 UNK        -0.5273 
     54 N          29.0086    0.5088   -9.9947 N.am      9 UNK        -0.4262 
     55 CA         29.6257   -0.7895  -10.2751 C.3       9 UNK         0.0264 
     56 CB         28.7525   -1.9003   -9.6647 C.3       9 UNK        -0.1955 
     57 C          31.0812   -0.8845   -9.7811 C.2       9 UNK         0.5031 
     58 O          31.6987   -1.9318   -9.9759 O.2       9 UNK        -0.5390 
     59 N          31.6044    0.1848   -9.1562 N.am      10 UNK        -0.4204 
     60 CA         32.9979    0.3704   -8.7170 C.3       10 UNK         0.0237 
     61 CB         33.9047    0.6223   -9.9406 C.3       10 UNK        -0.1985 
     62 C          33.5153   -0.7723   -7.8189 C.2       10 UNK         0.4970 
     63 O          34.5392   -1.3875   -8.1224 O.2       10 UNK        -0.4914 
     64 N          32.7605   -1.0457   -6.7482 N.am      11 UNK        -0.4285 
     65 CA         32.9574   -2.1490   -5.7894 C.3       11 UNK         0.1007 
     66 C          32.6647   -3.5724   -6.3583 C.2       11 UNK         0.5703 
     67 N          32.1641   -3.7263   -7.5795 N.am      11 UNK        -0.7361 
     68 O          32.8734   -4.5664   -5.6671 O.2       11 UNK        -0.4986 
     69 C69        34.3183   -2.0949   -5.0308 C.3       12 UNK        -0.0947 
     70 S70        34.6788   -0.4810   -4.2560 S.3       12 UNK        -0.2240 
     71 C71        34.2437   -0.7882   -2.5152 C.3       12 UNK         0.0194 
     72 H72        27.5036   -4.2148   -7.7029 H         1 UNK         0.0906 
     73 H73        27.0439   -5.9104   -7.5332 H         1 UNK         0.0906 
     74 H74        25.8004   -4.6568   -7.5647 H         1 UNK         0.0906 
     75 H75        27.3982   -6.6690   -5.4980 H         1 UNK         0.3140 
     76 H76        27.3601   -6.9781   -3.3330 H         1 UNK         0.1085 
     77 H77        29.2208   -5.9012   -2.1434 H         1 UNK         0.0836 
     78 H78        29.6356   -6.3892   -3.7478 H         1 UNK         0.0836 
     79 H79        30.4166   -3.9538   -1.3005 H         1 UNK         0.0731 
     80 H80        28.8933   -3.1158   -1.4983 H         1 UNK         0.0731 
     81 H81        32.5395   -2.9162   -2.2928 H         1 UNK         0.1312 
     82 H82        32.6200    1.3649   -2.2701 H         1 UNK         0.1406 
     83 H83        28.8894   -0.7161   -1.8331 H         1 UNK         0.1631 
     84 H84        28.8581    1.6543   -2.0574 H         1 UNK         0.0717 
     85 H85        30.0776    2.2150   -0.9425 H         1 UNK         0.0717 
     86 H86        28.1501    3.6187   -3.0698 H         1 UNK         0.0934 
     87 H87        29.1016    4.8388   -3.8695 H         1 UNK         0.0934 
     88 H88        29.4106    3.3669   -5.8608 H         1 UNK         0.0739 
     89 H89        28.2719    1.3218   -4.2055 H         1 UNK         0.3093 
     90 H90        27.4261   -0.9281   -6.7422 H         1 UNK         0.0818 
     91 H91        29.9581   -1.1466   -6.6967 H         1 UNK         0.0819 
     92 H92        29.1041   -2.4493   -5.9073 H         1 UNK         0.0819 
     93 H93        29.8790   -1.1891   -4.9393 H         1 UNK         0.0819 
     94 H94        27.5552   -1.5350   -4.0681 H         1 UNK         0.3041 
     95 H95        25.9608   -0.4259   -2.3366 H         1 UNK         0.0784 
     96 H96        23.2446   -0.1510   -3.7537 H         1 UNK         0.0793 
     97 H97        23.5056   -0.0794   -2.0130 H         1 UNK         0.0793 
     98 H98        24.1454    1.1788   -3.0367 H         1 UNK         0.0793 
     99 H99        25.3297   -2.6484   -3.9618 H         1 UNK         0.3024 
    100 H100       24.2021   -4.7496   -1.2705 H         1 UNK         0.1171 
    101 H101       22.1061   -3.9973   -2.4082 H         1 UNK         0.0786 
    102 H102       22.9020   -4.0971   -3.9728 H         1 UNK         0.0786 
    103 H103       22.6365   -5.5561   -3.0171 H         1 UNK         0.0786 
    104 H104       25.0940   -5.2431   -3.9768 H         1 UNK         0.2977 
    105 H105       26.0800    2.4656   -5.0760 H         1 UNK         0.3127 
    106 H106       24.9580    4.9783   -6.1668 H         1 UNK         0.0770 
    107 H107       23.9048    3.9455   -4.1402 H         1 UNK         0.0814 
    108 H108       23.5677    2.4788   -5.0605 H         1 UNK         0.0814 
    109 H109       22.7967    3.9932   -5.5021 H         1 UNK         0.0814 
    110 H110       25.2557    1.4903   -6.8987 H         1 UNK         0.2983 
    111 H111       23.8206    1.5680   -9.3847 H         1 UNK         0.0947 
    112 H112       24.6863   -0.7374   -9.6321 H         1 UNK         0.0806 
    113 H113       24.1424   -0.4945   -7.9791 H         1 UNK         0.0806 
    114 H114       25.8641   -0.4749   -8.3576 H         1 UNK         0.0806 
    115 H115       27.0178    2.5220   -8.5845 H         1 UNK         0.3000 
    116 H116       28.8137    3.2492   -9.6397 H         1 UNK         0.0850 
    117 H117       28.7273    4.1578  -11.9251 H         1 UNK         0.0810 
    118 H118       27.2858    4.6510  -11.0514 H         1 UNK         0.0810 
    119 H119       27.1990    3.3550  -12.2439 H         1 UNK         0.0810 
    120 H120       28.6659    0.6625   -9.0468 H         1 UNK         0.3040 
    121 H121       29.6541   -0.9518  -11.3547 H         1 UNK         0.0766 
    122 H122       27.7367   -1.8648  -10.0589 H         1 UNK         0.0812 
    123 H123       28.6919   -1.8230   -8.5816 H         1 UNK         0.0812 
    124 H124       29.1532   -2.8879   -9.8975 H         1 UNK         0.0812 
    125 H125       30.9931    0.9780   -9.0208 H         1 UNK         0.3205 
    126 H126       33.0158    1.2732   -8.1042 H         1 UNK         0.0754 
    127 H127       34.9272    0.8444   -9.6321 H         1 UNK         0.0769 
    128 H128       33.5528    1.4710  -10.5271 H         1 UNK         0.0769 
    129 H129       33.9438   -0.2461  -10.5995 H         1 UNK         0.0769 
    130 H130       31.9446   -0.4765   -6.5868 H         1 UNK         0.2981 
    131 H131       32.1782   -2.0010   -5.0429 H         1 UNK         0.0541 
    132 H132       31.9782   -4.6589   -7.9102 H         1 UNK         0.3459 
    133 H133       32.0403   -2.9417   -8.2079 H         1 UNK         0.3459 
    134 H134       34.3524   -2.8643   -4.2580 H         1 UNK         0.0612 
    135 H135       35.1396   -2.3271   -5.7100 H         1 UNK         0.0612 
    136 H136       34.6998   -0.0116   -1.8996 H         1 UNK         0.0624 
    137 H137       34.6775   -1.7324   -2.1824 H         1 UNK         0.0624 
@<TRIPOS>BOND
     1    1    2 1    
     2    1   72 1    
     3    1   73 1    
     4    1   74 1    
     5    2    3 2    
     6    2    4 am   BACKBONE|DICT|INTERRES
     7    4    5 1    
     8    4   75 1    
     9    5    6 1    
    10    5   35 1    
    11    5   76 1    
    12    6    7 1    
    13    6   77 1    
    14    6   78 1    
    15    7    8 1    
    16    8    9 1    
    17    8   79 1    
    18    8   80 1    
    19    9   10 ar   
    20    9   14 ar   
    21   10   11 ar   
    22   10   81 1    
    23   11   12 ar   
    24   11   71 1    
    25   12   13 ar   
    26   12   82 1    
    27   13   14 ar   
    28   13   15 1    
    29   14   83 1    
    30   15   16 1    
    31   15   84 1    
    32   15   85 1    
    33   16   17 1    
    34   17   18 1    
    35   17   86 1    
    36   17   87 1    
    37   18   19 1    
    38   18   37 1    
    39   18   88 1    
    40   19   20 am   BACKBONE|DICT|INTERRES
    41   19   89 1    
    42   20   21 2    
    43   20   22 1    
    44   22   23 1    
    45   22   24 1    
    46   22   90 1    
    47   23   91 1    
    48   23   92 1    
    49   23   93 1    
    50   24   25 am   BACKBONE|DICT|INTERRES
    51   24   94 1    
    52   25   26 2    
    53   25   27 1    
    54   27   28 1    
    55   27   29 1    
    56   27   95 1    
    57   28   96 1    
    58   28   97 1    
    59   28   98 1    
    60   29   30 am   BACKBONE|DICT|INTERRES
    61   29   99 1    
    62   30   31 2    
    63   30   32 1    
    64   32   33 1    
    65   32   34 1    
    66   32  100 1    
    67   33  101 1    
    68   33  102 1    
    69   33  103 1    
    70   34   35 am   BACKBONE|DICT|INTERRES
    71   34  104 1    
    72   35   36 2    
    73   37   38 2    
    74   37   39 am   BACKBONE|DICT|INTERRES
    75   39   40 1    
    76   39  105 1    
    77   40   41 1    
    78   40   42 1    
    79   40  106 1    
    80   41  107 1    
    81   41  108 1    
    82   41  109 1    
    83   42   43 2    
    84   42   44 am   BACKBONE|DICT|INTERRES
    85   44   45 1    
    86   44  110 1    
    87   45   46 1    
    88   45   47 1    
    89   45  111 1    
    90   46  112 1    
    91   46  113 1    
    92   46  114 1    
    93   47   48 2    
    94   47   49 am   BACKBONE|DICT|INTERRES
    95   49   50 1    
    96   49  115 1    
    97   50   51 1    
    98   50   52 1    
    99   50  116 1    
   100   51  117 1    
   101   51  118 1    
   102   51  119 1    
   103   52   53 2    
   104   52   54 am   BACKBONE|DICT|INTERRES
   105   54   55 1    
   106   54  120 1    
   107   55   56 1    
   108   55   57 1    
   109   55  121 1    
   110   56  122 1    
   111   56  123 1    
   112   56  124 1    
   113   57   58 2    
   114   57   59 am   BACKBONE|DICT|INTERRES
   115   59   60 1    
   116   59  125 1    
   117   60   61 1    
   118   60   62 1    
   119   60  126 1    
   120   61  127 1    
   121   61  128 1    
   122   61  129 1    
   123   62   63 2    
   124   62   64 am   BACKBONE|DICT|INTERRES
   125   64   65 1    
   126   64  130 1    
   127   65   66 1    
   128   65   69 1    
   129   65  131 1    
   130   66   67 am   BACKBONE|DICT|INTERRES
   131   66   68 2    
   132   67  132 1    
   133   67  133 1    
   134   69   70 1    
   135   69  134 1    
   136   69  135 1    
   137   70   71 1    
   138   71  136 1    
   139   71  137 1    
@<TRIPOS>SUBSTRUCTURE
     1 UNK         1 GROUP             0       ****    0 ROOT    
