@<TRIPOS>MOLECULE
3R137
137   139    1
SMALL
USER_CHARGES


@<TRIPOS>ATOM
      1 CA         27.2433   -6.8289   -2.8377 C.3       0 UNK        -0.2020 
      2 C          26.5196   -5.9397   -1.8379 C.2       0 UNK         0.4855 
      3 O          25.4599   -6.3183   -1.3377 O.2       0 UNK        -0.5197 
      4 N          27.0896   -4.7677   -1.5315 N.am      1 UNK        -0.4892 
      5 CA         26.5009   -3.7571   -0.6490 C.3       1 UNK         0.0835 
      6 C6         27.5757   -2.7900   -0.0810 C.3       12 UNK        -0.0855 
      7 S7         28.5342   -1.8957   -1.3544 S.3       12 UNK        -0.2931 
      8 C8         30.1261   -2.7842   -1.3206 C.3       12 UNK         0.0378 
      9 C9         30.7441   -2.7703   -2.7071 C.ar      12 UNK        -0.0802 
     10 C10        31.7255   -1.8354   -3.0485 C.ar      12 UNK        -0.0944 
     11 C11        32.2211   -1.7672   -4.3550 C.ar      12 UNK        -0.0787 
     12 C12        31.7061   -2.6482   -5.3182 C.ar      12 UNK        -0.0862 
     13 C13        30.7027   -3.5681   -4.9982 C.ar      12 UNK        -0.0733 
     14 C14        30.2744   -3.6615   -3.6729 C.ar      12 UNK        -0.0832 
     15 C15        30.0963   -4.4195   -6.1155 C.3       12 UNK         0.0240 
     16 S16        28.3751   -5.0128   -5.8685 S.3       12 UNK        -0.2522 
     17 C17        27.3982   -3.5784   -5.2813 C.3       12 UNK        -0.0967 
     18 CA         27.0190   -2.5383   -6.3650 C.3       5 UNK         0.0660 
     19 N          25.8044   -1.8054   -5.9890 N.am      5 UNK        -0.4015 
     20 C          25.1796   -0.9007   -6.7578 C.2       4 UNK         0.4946 
     21 O          25.5160   -0.6231   -7.9083 O.2       4 UNK        -0.5353 
     22 CA         24.0031   -0.1407   -6.1249 C.3       4 UNK         0.0277 
     23 CB         22.7002   -0.9410   -6.2783 C.3       4 UNK        -0.1981 
     24 N          24.1994    0.2010   -4.7137 N.am      4 UNK        -0.4209 
     25 C          25.2119    0.9085   -4.1960 C.2       3 UNK         0.4942 
     26 O          26.1484    1.3397   -4.8667 O.2       3 UNK        -0.5208 
     27 CA         25.2044    1.1721   -2.6771 C.3       3 UNK         0.0250 
     28 CB         24.4884    2.4980   -2.3563 C.3       3 UNK        -0.1990 
     29 N          24.6892    0.0681   -1.8502 N.am      3 UNK        -0.4232 
     30 C          23.4563   -0.4619   -1.8111 C.2       2 UNK         0.4993 
     31 O          22.5152   -0.0402   -2.4853 O.2       2 UNK        -0.5286 
     32 CA         23.2377   -1.6840   -0.8944 C.3       2 UNK         0.0209 
     33 CB         22.1984   -2.6647   -1.4804 C.3       2 UNK        -0.1931 
     34 N          24.4642   -2.4086   -0.5221 N.am      2 UNK        -0.4546 
     35 C          25.3409   -3.0087   -1.3436 C.2       1 UNK         0.5154 
     36 O          25.2770   -2.9598   -2.5769 O.2       1 UNK        -0.5181 
     37 C          28.1830   -1.5669   -6.6420 C.2       5 UNK         0.5014 
     38 O          28.7796   -1.6153   -7.7182 O.2       5 UNK        -0.5248 
     39 N          28.4482   -0.6775   -5.6747 N.am      6 UNK        -0.4434 
     40 CA         29.5044    0.3309   -5.7324 C.3       6 UNK         0.0363 
     41 CB         29.6561    0.9856   -4.3512 C.3       6 UNK        -0.1936 
     42 C          29.2653    1.3837   -6.8234 C.2       6 UNK         0.5081 
     43 O          30.2227    1.8150   -7.4658 O.2       6 UNK        -0.5248 
     44 N          27.9974    1.7599   -7.0355 N.am      7 UNK        -0.4718 
     45 CA         27.5660    2.6470   -8.1151 C.3       7 UNK         0.0273 
     46 CB         26.0946    3.0395   -7.9092 C.3       7 UNK        -0.1935 
     47 C          27.7840    2.0247   -9.5040 C.2       7 UNK         0.5018 
     48 O          28.3465    2.6886  -10.3748 O.2       7 UNK        -0.5186 
     49 N          27.3680    0.7608   -9.6791 N.am      8 UNK        -0.4240 
     50 CA         27.5312   -0.0016  -10.9209 C.3       8 UNK         0.0235 
     51 CB         26.7261   -1.3084  -10.8395 C.3       8 UNK        -0.2000 
     52 C          29.0017   -0.2936  -11.2596 C.2       8 UNK         0.4941 
     53 O          29.3925   -0.1595  -12.4198 O.2       8 UNK        -0.5273 
     54 N          29.7915   -0.6696  -10.2450 N.am      9 UNK        -0.4262 
     55 CA         31.2267   -0.9397  -10.3656 C.3       9 UNK         0.0264 
     56 CB         31.6583   -1.8282   -9.1906 C.3       9 UNK        -0.1955 
     57 C          32.0999    0.3288  -10.4519 C.2       9 UNK         0.5031 
     58 O          33.2810    0.2082  -10.7814 O.2       9 UNK        -0.5390 
     59 N          31.5168    1.5040  -10.1689 N.am      10 UNK        -0.4204 
     60 CA         32.1340    2.8358  -10.1542 C.3       10 UNK         0.0237 
     61 CB         32.5911    3.2529  -11.5688 C.3       10 UNK        -0.1985 
     62 C          33.2420    2.9603   -9.0899 C.2       10 UNK         0.4970 
     63 O          34.3484    3.4133   -9.3913 O.2       10 UNK        -0.4914 
     64 N          32.9085    2.5575   -7.8610 N.am      11 UNK        -0.4285 
     65 CA         33.7803    2.5707   -6.6753 C.3       11 UNK         0.1007 
     66 C          33.0904    3.1462   -5.4057 C.2       11 UNK         0.5703 
     67 N          31.8876    3.7021   -5.4962 N.am      11 UNK        -0.7361 
     68 O          33.6689    3.1230   -4.3220 O.2       11 UNK        -0.4986 
     69 C69        34.4762    1.1994   -6.4403 C.3       12 UNK        -0.0947 
     70 S70        33.3250   -0.2139   -6.4406 S.3       12 UNK        -0.2240 
     71 C71        33.2888   -0.7192   -4.6878 C.3       12 UNK         0.0194 
     72 H72        27.3105   -7.8475   -2.4565 H         1 UNK         0.0906 
     73 H73        26.6971   -6.8533   -3.7804 H         1 UNK         0.0906 
     74 H74        28.2553   -6.4795   -3.0388 H         1 UNK         0.0906 
     75 H75        27.9316   -4.4770   -2.0017 H         1 UNK         0.3140 
     76 H76        26.0642   -4.2875    0.2008 H         1 UNK         0.1085 
     77 H77        27.1156   -2.0501    0.5765 H         1 UNK         0.0836 
     78 H78        28.2609   -3.3457    0.5612 H         1 UNK         0.0836 
     79 H79        30.7891   -2.3172   -0.5906 H         1 UNK         0.0731 
     80 H80        29.9848   -3.8167   -0.9974 H         1 UNK         0.0731 
     81 H81        32.0868   -1.1430   -2.3003 H         1 UNK         0.1312 
     82 H82        32.0633   -2.6074   -6.3363 H         1 UNK         0.1406 
     83 H83        29.5234   -4.3872   -3.4028 H         1 UNK         0.1631 
     84 H84        30.7361   -5.2896   -6.2661 H         1 UNK         0.0717 
     85 H85        30.1226   -3.8632   -7.0533 H         1 UNK         0.0717 
     86 H86        27.8568   -3.1020   -4.4161 H         1 UNK         0.0934 
     87 H87        26.4821   -4.0194   -4.8842 H         1 UNK         0.0934 
     88 H88        26.7955   -3.0661   -7.2946 H         1 UNK         0.0739 
     89 H89        25.4518   -1.9629   -5.0544 H         1 UNK         0.3093 
     90 H90        23.8912    0.7987   -6.6690 H         1 UNK         0.0818 
     91 H91        21.8400   -0.3681   -5.9309 H         1 UNK         0.0819 
     92 H92        22.5181   -1.1951   -7.3236 H         1 UNK         0.0819 
     93 H93        22.7301   -1.8743   -5.7145 H         1 UNK         0.0819 
     94 H94        23.4569   -0.0582   -4.0675 H         1 UNK         0.3041 
     95 H95        26.2498    1.2879   -2.3856 H         1 UNK         0.0784 
     96 H96        24.9440    3.3262   -2.9009 H         1 UNK         0.0793 
     97 H97        23.4340    2.4713   -2.6329 H         1 UNK         0.0793 
     98 H98        24.5510    2.7354   -1.2944 H         1 UNK         0.0793 
     99 H99        25.3873   -0.3906   -1.2818 H         1 UNK         0.3024 
    100 H100       22.8245   -1.2824    0.0325 H         1 UNK         0.1171 
    101 H101       22.0328   -3.5122   -0.8153 H         1 UNK         0.0786 
    102 H102       22.5130   -3.0554   -2.4489 H         1 UNK         0.0786 
    103 H103       21.2329   -2.1780   -1.6248 H         1 UNK         0.0786 
    104 H104       24.6258   -2.4820    0.4737 H         1 UNK         0.2977 
    105 H105       27.8667   -0.6677   -4.8501 H         1 UNK         0.3127 
    106 H106       30.4334   -0.1838   -5.9754 H         1 UNK         0.0770 
    107 H107       28.7853    1.5873   -4.0887 H         1 UNK         0.0814 
    108 H108       30.5274    1.6384   -4.3255 H         1 UNK         0.0814 
    109 H109       29.7940    0.2386   -3.5698 H         1 UNK         0.0814 
    110 H110       27.2798    1.4156   -6.4019 H         1 UNK         0.2983 
    111 H111       28.1708    3.5549   -8.0596 H         1 UNK         0.0947 
    112 H112       25.7688    3.7444   -8.6752 H         1 UNK         0.0806 
    113 H113       25.9435    3.5175   -6.9410 H         1 UNK         0.0806 
    114 H114       25.4343    2.1741   -7.9605 H         1 UNK         0.0806 
    115 H115       26.8845    0.2895   -8.9175 H         1 UNK         0.3000 
    116 H116       27.1196    0.5996  -11.7344 H         1 UNK         0.0850 
    117 H117       26.8295   -1.8911  -11.7558 H         1 UNK         0.0810 
    118 H118       25.6634   -1.1098  -10.6993 H         1 UNK         0.0810 
    119 H119       27.0591   -1.9360  -10.0115 H         1 UNK         0.0810 
    120 H120       29.3757   -0.8224   -9.3270 H         1 UNK         0.3040 
    121 H121       31.3951   -1.5010  -11.2871 H         1 UNK         0.0766 
    122 H122       32.7332   -2.0140   -9.2017 H         1 UNK         0.0812 
    123 H123       31.4122   -1.3594   -8.2390 H         1 UNK         0.0812 
    124 H124       31.1583   -2.7962   -9.2223 H         1 UNK         0.0812 
    125 H125       30.5522    1.4771   -9.8640 H         1 UNK         0.3205 
    126 H126       31.3450    3.5261   -9.8514 H         1 UNK         0.0754 
    127 H127       32.9372    4.2872  -11.5771 H         1 UNK         0.0769 
    128 H128       31.7731    3.1794  -12.2856 H         1 UNK         0.0769 
    129 H129       33.4119    2.6336  -11.9315 H         1 UNK         0.0769 
    130 H130       31.9689    2.1933   -7.7057 H         1 UNK         0.2981 
    131 H131       34.5784    3.2914   -6.8610 H         1 UNK         0.0541 
    132 H132       31.3936    3.7225   -6.3742 H         1 UNK         0.3459 
    133 H133       31.4658    4.0937   -4.6698 H         1 UNK         0.3459 
    134 H134       35.0667    1.2010   -5.5226 H         1 UNK         0.0612 
    135 H135       35.1918    1.0252   -7.2449 H         1 UNK         0.0612 
    136 H136       34.2682   -1.1113   -4.4118 H         1 UNK         0.0624 
    137 H137       33.1220    0.1733   -4.0824 H         1 UNK         0.0624 
@<TRIPOS>BOND
     1    1    2 1    
     2    1   72 1    
     3    1   73 1    
     4    1   74 1    
     5    2    3 2    
     6    2    4 am   BACKBONE|DICT|INTERRES
     7    4    5 1    
     8    4   75 1    
     9    5    6 1    
    10    5   35 1    
    11    5   76 1    
    12    6    7 1    
    13    6   77 1    
    14    6   78 1    
    15    7    8 1    
    16    8    9 1    
    17    8   79 1    
    18    8   80 1    
    19    9   10 ar   
    20    9   14 ar   
    21   10   11 ar   
    22   10   81 1    
    23   11   12 ar   
    24   11   71 1    
    25   12   13 ar   
    26   12   82 1    
    27   13   14 ar   
    28   13   15 1    
    29   14   83 1    
    30   15   16 1    
    31   15   84 1    
    32   15   85 1    
    33   16   17 1    
    34   17   18 1    
    35   17   86 1    
    36   17   87 1    
    37   18   19 1    
    38   18   37 1    
    39   18   88 1    
    40   19   20 am   BACKBONE|DICT|INTERRES
    41   19   89 1    
    42   20   21 2    
    43   20   22 1    
    44   22   23 1    
    45   22   24 1    
    46   22   90 1    
    47   23   91 1    
    48   23   92 1    
    49   23   93 1    
    50   24   25 am   BACKBONE|DICT|INTERRES
    51   24   94 1    
    52   25   26 2    
    53   25   27 1    
    54   27   28 1    
    55   27   29 1    
    56   27   95 1    
    57   28   96 1    
    58   28   97 1    
    59   28   98 1    
    60   29   30 am   BACKBONE|DICT|INTERRES
    61   29   99 1    
    62   30   31 2    
    63   30   32 1    
    64   32   33 1    
    65   32   34 1    
    66   32  100 1    
    67   33  101 1    
    68   33  102 1    
    69   33  103 1    
    70   34   35 am   BACKBONE|DICT|INTERRES
    71   34  104 1    
    72   35   36 2    
    73   37   38 2    
    74   37   39 am   BACKBONE|DICT|INTERRES
    75   39   40 1    
    76   39  105 1    
    77   40   41 1    
    78   40   42 1    
    79   40  106 1    
    80   41  107 1    
    81   41  108 1    
    82   41  109 1    
    83   42   43 2    
    84   42   44 am   BACKBONE|DICT|INTERRES
    85   44   45 1    
    86   44  110 1    
    87   45   46 1    
    88   45   47 1    
    89   45  111 1    
    90   46  112 1    
    91   46  113 1    
    92   46  114 1    
    93   47   48 2    
    94   47   49 am   BACKBONE|DICT|INTERRES
    95   49   50 1    
    96   49  115 1    
    97   50   51 1    
    98   50   52 1    
    99   50  116 1    
   100   51  117 1    
   101   51  118 1    
   102   51  119 1    
   103   52   53 2    
   104   52   54 am   BACKBONE|DICT|INTERRES
   105   54   55 1    
   106   54  120 1    
   107   55   56 1    
   108   55   57 1    
   109   55  121 1    
   110   56  122 1    
   111   56  123 1    
   112   56  124 1    
   113   57   58 2    
   114   57   59 am   BACKBONE|DICT|INTERRES
   115   59   60 1    
   116   59  125 1    
   117   60   61 1    
   118   60   62 1    
   119   60  126 1    
   120   61  127 1    
   121   61  128 1    
   122   61  129 1    
   123   62   63 2    
   124   62   64 am   BACKBONE|DICT|INTERRES
   125   64   65 1    
   126   64  130 1    
   127   65   66 1    
   128   65   69 1    
   129   65  131 1    
   130   66   67 am   BACKBONE|DICT|INTERRES
   131   66   68 2    
   132   67  132 1    
   133   67  133 1    
   134   69   70 1    
   135   69  134 1    
   136   69  135 1    
   137   70   71 1    
   138   71  136 1    
   139   71  137 1    
@<TRIPOS>SUBSTRUCTURE
     1 UNK         1 GROUP             0       ****    0 ROOT    
