@<TRIPOS>MOLECULE
3R137
137   139    1
SMALL
USER_CHARGES


@<TRIPOS>ATOM
      1 CA         26.8868   -5.8181    2.4318 C.3       0 UNK        -0.2020 
      2 C          26.7659   -4.3112    2.2628 C.2       0 UNK         0.4855 
      3 O          25.8153   -3.7125    2.7665 O.2       0 UNK        -0.5197 
      4 N          27.7239   -3.6933    1.5600 N.am      1 UNK        -0.4892 
      5 CA         27.7626   -2.2558    1.2597 C.3       1 UNK         0.0835 
      6 C6         29.1675   -1.7964    0.7858 C.3       12 UNK        -0.0855 
      7 S7         29.9160   -2.8660   -0.4948 S.3       12 UNK        -0.2931 
      8 C8         29.6395   -1.8793   -1.9956 C.3       12 UNK         0.0378 
      9 C9         30.0351   -2.6606   -3.2381 C.ar      12 UNK        -0.0802 
     10 C10        31.2141   -2.3579   -3.9247 C.ar      12 UNK        -0.0944 
     11 C11        31.5680   -3.0695   -5.0758 C.ar      12 UNK        -0.0787 
     12 C12        30.7380   -4.1005   -5.5290 C.ar      12 UNK        -0.0862 
     13 C13        29.5670   -4.4265   -4.8382 C.ar      12 UNK        -0.0733 
     14 C14        29.2175   -3.6956   -3.6986 C.ar      12 UNK        -0.0832 
     15 C15        28.7054   -5.5964   -5.2962 C.3       12 UNK         0.0240 
     16 S16        27.6592   -5.1869   -6.7291 S.3       12 UNK        -0.2522 
     17 C17        26.4970   -3.9817   -6.0051 C.3       12 UNK        -0.0967 
     18 CA         26.2921   -2.7139   -6.8683 C.3       5 UNK         0.0660 
     19 N          25.1990   -1.9020   -6.3332 N.am      5 UNK        -0.4015 
     20 C          24.3477   -1.1756   -7.0699 C.2       4 UNK         0.4946 
     21 O          24.3285   -1.1794   -8.3006 O.2       4 UNK        -0.5353 
     22 CA         23.3307   -0.2971   -6.3145 C.3       4 UNK         0.0277 
     23 CB         21.9637   -0.9976   -6.2466 C.3       4 UNK        -0.1981 
     24 N          23.7523    0.0649   -4.9578 N.am      4 UNK        -0.4209 
     25 C          24.7822    0.8736   -4.6717 C.2       3 UNK         0.4942 
     26 O          25.4658    1.4346   -5.5252 O.2       3 UNK        -0.5208 
     27 CA         25.1510    1.0362   -3.1873 C.3       3 UNK         0.0250 
     28 CB         24.3680    2.2019   -2.5633 C.3       3 UNK        -0.1990 
     29 N          24.9519   -0.1756   -2.3836 N.am      3 UNK        -0.4232 
     30 C          25.5245   -1.3642   -2.6195 C.2       2 UNK         0.4993 
     31 O          26.2637   -1.5872   -3.5816 O.2       2 UNK        -0.5286 
     32 CA         25.1981   -2.4962   -1.6293 C.3       2 UNK         0.0209 
     33 CB         24.9372   -3.8231   -2.3644 C.3       2 UNK        -0.1931 
     34 N          26.2611   -2.6993   -0.6426 N.am      2 UNK        -0.4546 
     35 C          26.6493   -1.8119    0.2858 C.2       1 UNK         0.5154 
     36 O          26.1479   -0.6942    0.4157 O.2       1 UNK        -0.5181 
     37 C          27.5710   -1.8600   -7.0132 C.2       5 UNK         0.5014 
     38 O          28.3051   -2.0416   -7.9852 O.2       5 UNK        -0.5248 
     39 N          27.7996   -0.9267   -6.0741 N.am      6 UNK        -0.4434 
     40 CA         28.8929    0.0487   -6.1281 C.3       6 UNK         0.0363 
     41 CB         28.9820    0.8021   -4.7922 C.3       6 UNK        -0.1936 
     42 C          28.7560    1.0463   -7.2926 C.2       6 UNK         0.5081 
     43 O          29.7620    1.3967   -7.9137 O.2       6 UNK        -0.5248 
     44 N          27.5178    1.4842   -7.5641 N.am      7 UNK        -0.4718 
     45 CA         27.1370    2.3194   -8.7058 C.3       7 UNK         0.0273 
     46 CB         25.6547    2.7031   -8.5725 C.3       7 UNK        -0.1935 
     47 C          27.3853    1.6126  -10.0494 C.2       7 UNK         0.5018 
     48 O          27.3247    0.3839  -10.1196 O.2       7 UNK        -0.5186 
     49 N          27.6840    2.4028  -11.0905 N.am      8 UNK        -0.4240 
     50 CA         28.0786    2.0058  -12.4547 C.3       8 UNK         0.0235 
     51 CB         26.9976    1.1550  -13.1510 C.3       8 UNK        -0.2000 
     52 C          29.4638    1.3342  -12.5336 C.2       8 UNK         0.4941 
     53 O          30.2364    1.6632  -13.4341 O.2       8 UNK        -0.5273 
     54 N          29.7780    0.4535  -11.5737 N.am      9 UNK        -0.4262 
     55 CA         31.1142   -0.0966  -11.3303 C.3       9 UNK         0.0264 
     56 CB         31.0078   -1.2547  -10.3254 C.3       9 UNK        -0.1955 
     57 C          32.1078    0.9667  -10.8236 C.2       9 UNK         0.5031 
     58 O          33.3040    0.8442  -11.0908 O.2       9 UNK        -0.5390 
     59 N          31.5858    1.9865  -10.1233 N.am      10 UNK        -0.4204 
     60 CA         32.2851    3.1313   -9.5317 C.3       10 UNK         0.0237 
     61 CB         32.9480    4.0062  -10.6178 C.3       10 UNK        -0.1985 
     62 C          33.2489    2.7042   -8.4114 C.2       10 UNK         0.4970 
     63 O          34.3876    3.1743   -8.3591 O.2       10 UNK        -0.4914 
     64 N          32.7685    1.8098   -7.5395 N.am      11 UNK        -0.4285 
     65 CA         33.5013    1.3113   -6.3682 C.3       11 UNK         0.1007 
     66 C          33.7139    2.4111   -5.2919 C.2       11 UNK         0.5703 
     67 N          34.8333    2.3754   -4.5816 N.am      11 UNK        -0.7361 
     68 O          32.8591    3.2665   -5.0674 O.2       11 UNK        -0.4986 
     69 C69        32.8093    0.0731   -5.7492 C.3       12 UNK        -0.0947 
     70 S70        32.6741   -1.3175   -6.9229 S.3       12 UNK        -0.2240 
     71 C71        32.8600   -2.7491   -5.8151 C.3       12 UNK         0.0194 
     72 H72        27.7759   -6.2140    1.9414 H         1 UNK         0.0906 
     73 H73        26.9413   -6.0738    3.4897 H         1 UNK         0.0906 
     74 H74        26.0152   -6.3143    2.0057 H         1 UNK         0.0906 
     75 H75        28.4891   -4.2284    1.1710 H         1 UNK         0.3140 
     76 H76        27.5562   -1.7318    2.1961 H         1 UNK         0.1085 
     77 H77        29.1521   -0.7576    0.4487 H         1 UNK         0.0836 
     78 H78        29.8454   -1.8065    1.6408 H         1 UNK         0.0836 
     79 H79        30.2071   -0.9502   -1.9251 H         1 UNK         0.0731 
     80 H80        28.5889   -1.5969   -2.0669 H         1 UNK         0.0731 
     81 H81        31.8564   -1.5682   -3.5619 H         1 UNK         0.1312 
     82 H82        31.0086   -4.6609   -6.4135 H         1 UNK         0.1406 
     83 H83        28.3154   -3.9375   -3.1542 H         1 UNK         0.1631 
     84 H84        28.0736   -5.9531   -4.4811 H         1 UNK         0.0717 
     85 H85        29.3510   -6.4339   -5.5646 H         1 UNK         0.0717 
     86 H86        25.5430   -4.4955   -5.8771 H         1 UNK         0.0934 
     87 H87        26.8165   -3.7060   -5.0023 H         1 UNK         0.0934 
     88 H88        26.0161   -3.0462   -7.8717 H         1 UNK         0.0739 
     89 H89        25.1786   -1.8067   -5.3250 H         1 UNK         0.3093 
     90 H90        23.2142    0.6266   -6.8858 H         1 UNK         0.0818 
     91 H91        21.2098   -0.3551   -5.7913 H         1 UNK         0.0819 
     92 H92        21.6068   -1.2534   -7.2454 H         1 UNK         0.0819 
     93 H93        22.0108   -1.9230   -5.6712 H         1 UNK         0.0819 
     94 H94        23.2400   -0.3484   -4.1921 H         1 UNK         0.3041 
     95 H95        26.2137    1.2797   -3.1403 H         1 UNK         0.0784 
     96 H96        24.5192    3.1214   -3.1309 H         1 UNK         0.0793 
     97 H97        23.2955    2.0045   -2.5416 H         1 UNK         0.0793 
     98 H98        24.6949    2.3975   -1.5417 H         1 UNK         0.0793 
     99 H99        24.4006   -0.0689   -1.5434 H         1 UNK         0.3024 
    100 H100       24.2860   -2.2302   -1.0905 H         1 UNK         0.1171 
    101 H101       24.5782   -4.5904   -1.6782 H         1 UNK         0.0786 
    102 H102       24.1772   -3.7016   -3.1376 H         1 UNK         0.0786 
    103 H103       25.8365   -4.2045   -2.8478 H         1 UNK         0.0786 
    104 H104       26.7399   -3.5873   -0.6658 H         1 UNK         0.2977 
    105 H105       27.1922   -0.8940   -5.2628 H         1 UNK         0.3127 
    106 H106       29.8169   -0.5121   -6.2761 H         1 UNK         0.0770 
    107 H107       28.0832    1.3873   -4.6006 H         1 UNK         0.0814 
    108 H108       29.8226    1.4971   -4.7903 H         1 UNK         0.0814 
    109 H109       29.1219    0.1175   -3.9580 H         1 UNK         0.0814 
    110 H110       26.7628    1.1967   -6.9481 H         1 UNK         0.2983 
    111 H111       27.7440    3.2264   -8.6684 H         1 UNK         0.0947 
    112 H112       25.3346    3.3394   -9.3987 H         1 UNK         0.0806 
    113 H113       25.4688    3.2533   -7.6499 H         1 UNK         0.0806 
    114 H114       25.0124    1.8211   -8.5704 H         1 UNK         0.0806 
    115 H115       27.7086    3.3999  -10.9237 H         1 UNK         0.3000 
    116 H116       28.1594    2.9398  -13.0136 H         1 UNK         0.0850 
    117 H117       27.2546    0.9857  -14.1975 H         1 UNK         0.0810 
    118 H118       26.0280    1.6524  -13.1317 H         1 UNK         0.0810 
    119 H119       26.8815    0.1751  -12.6875 H         1 UNK         0.0810 
    120 H120       29.0484    0.2188  -10.9038 H         1 UNK         0.3040 
    121 H121       31.4978   -0.4898  -12.2740 H         1 UNK         0.0766 
    122 H122       30.6039   -0.9228   -9.3674 H         1 UNK         0.0812 
    123 H123       31.9865   -1.6951  -10.1301 H         1 UNK         0.0812 
    124 H124       30.3623   -2.0494  -10.6995 H         1 UNK         0.0812 
    125 H125       30.6117    1.9025   -9.8585 H         1 UNK         0.3205 
    126 H126       31.5162    3.7372   -9.0498 H         1 UNK         0.0754 
    127 H127       33.3513    4.9233  -10.1867 H         1 UNK         0.0769 
    128 H128       32.2301    4.2970  -11.3848 H         1 UNK         0.0769 
    129 H129       33.7728    3.4897  -11.1095 H         1 UNK         0.0769 
    130 H130       31.8082    1.4992   -7.6387 H         1 UNK         0.2981 
    131 H131       34.4873    0.9998   -6.7191 H         1 UNK         0.0541 
    132 H132       35.5364    1.6727   -4.7493 H         1 UNK         0.3459 
    133 H133       34.9823    3.0719   -3.8683 H         1 UNK         0.3459 
    134 H134       31.8133    0.3270   -5.3889 H         1 UNK         0.0612 
    135 H135       33.3734   -0.2621   -4.8775 H         1 UNK         0.0612 
    136 H136       33.1685   -3.6069   -6.4144 H         1 UNK         0.0624 
    137 H137       33.6695   -2.5742   -5.1051 H         1 UNK         0.0624 
@<TRIPOS>BOND
     1    1    2 1    
     2    1   72 1    
     3    1   73 1    
     4    1   74 1    
     5    2    3 2    
     6    2    4 am   BACKBONE|DICT|INTERRES
     7    4    5 1    
     8    4   75 1    
     9    5    6 1    
    10    5   35 1    
    11    5   76 1    
    12    6    7 1    
    13    6   77 1    
    14    6   78 1    
    15    7    8 1    
    16    8    9 1    
    17    8   79 1    
    18    8   80 1    
    19    9   10 ar   
    20    9   14 ar   
    21   10   11 ar   
    22   10   81 1    
    23   11   12 ar   
    24   11   71 1    
    25   12   13 ar   
    26   12   82 1    
    27   13   14 ar   
    28   13   15 1    
    29   14   83 1    
    30   15   16 1    
    31   15   84 1    
    32   15   85 1    
    33   16   17 1    
    34   17   18 1    
    35   17   86 1    
    36   17   87 1    
    37   18   19 1    
    38   18   37 1    
    39   18   88 1    
    40   19   20 am   BACKBONE|DICT|INTERRES
    41   19   89 1    
    42   20   21 2    
    43   20   22 1    
    44   22   23 1    
    45   22   24 1    
    46   22   90 1    
    47   23   91 1    
    48   23   92 1    
    49   23   93 1    
    50   24   25 am   BACKBONE|DICT|INTERRES
    51   24   94 1    
    52   25   26 2    
    53   25   27 1    
    54   27   28 1    
    55   27   29 1    
    56   27   95 1    
    57   28   96 1    
    58   28   97 1    
    59   28   98 1    
    60   29   30 am   BACKBONE|DICT|INTERRES
    61   29   99 1    
    62   30   31 2    
    63   30   32 1    
    64   32   33 1    
    65   32   34 1    
    66   32  100 1    
    67   33  101 1    
    68   33  102 1    
    69   33  103 1    
    70   34   35 am   BACKBONE|DICT|INTERRES
    71   34  104 1    
    72   35   36 2    
    73   37   38 2    
    74   37   39 am   BACKBONE|DICT|INTERRES
    75   39   40 1    
    76   39  105 1    
    77   40   41 1    
    78   40   42 1    
    79   40  106 1    
    80   41  107 1    
    81   41  108 1    
    82   41  109 1    
    83   42   43 2    
    84   42   44 am   BACKBONE|DICT|INTERRES
    85   44   45 1    
    86   44  110 1    
    87   45   46 1    
    88   45   47 1    
    89   45  111 1    
    90   46  112 1    
    91   46  113 1    
    92   46  114 1    
    93   47   48 2    
    94   47   49 am   BACKBONE|DICT|INTERRES
    95   49   50 1    
    96   49  115 1    
    97   50   51 1    
    98   50   52 1    
    99   50  116 1    
   100   51  117 1    
   101   51  118 1    
   102   51  119 1    
   103   52   53 2    
   104   52   54 am   BACKBONE|DICT|INTERRES
   105   54   55 1    
   106   54  120 1    
   107   55   56 1    
   108   55   57 1    
   109   55  121 1    
   110   56  122 1    
   111   56  123 1    
   112   56  124 1    
   113   57   58 2    
   114   57   59 am   BACKBONE|DICT|INTERRES
   115   59   60 1    
   116   59  125 1    
   117   60   61 1    
   118   60   62 1    
   119   60  126 1    
   120   61  127 1    
   121   61  128 1    
   122   61  129 1    
   123   62   63 2    
   124   62   64 am   BACKBONE|DICT|INTERRES
   125   64   65 1    
   126   64  130 1    
   127   65   66 1    
   128   65   69 1    
   129   65  131 1    
   130   66   67 am   BACKBONE|DICT|INTERRES
   131   66   68 2    
   132   67  132 1    
   133   67  133 1    
   134   69   70 1    
   135   69  134 1    
   136   69  135 1    
   137   70   71 1    
   138   71  136 1    
   139   71  137 1    
@<TRIPOS>SUBSTRUCTURE
     1 UNK         1 GROUP             0       ****    0 ROOT    
