@<TRIPOS>MOLECULE
3R137
137   139    1
SMALL
USER_CHARGES


@<TRIPOS>ATOM
      1 CA         29.1735   -3.3060   -2.2101 C.3       0 UNK        -0.2020 
      2 C          28.2559   -2.1087   -2.0236 C.2       0 UNK         0.4855 
      3 O          27.4764   -2.0746   -1.0702 O.2       0 UNK        -0.5197 
      4 N          28.3362   -1.1289   -2.9330 N.am      1 UNK        -0.4892 
      5 CA         27.4442    0.0366   -2.9871 C.3       1 UNK         0.0835 
      6 C6         27.9375    1.0981   -4.0014 C.3       12 UNK        -0.0855 
      7 S7         29.5201    1.8515   -3.5000 S.3       12 UNK        -0.2931 
      8 C8         30.6072    1.4105   -4.8920 C.3       12 UNK         0.0378 
      9 C9         30.9292   -0.0764   -4.9174 C.ar      12 UNK        -0.0802 
     10 C10        31.7622   -0.6327   -3.9428 C.ar      12 UNK        -0.0944 
     11 C11        32.0766   -1.9952   -3.9668 C.ar      12 UNK        -0.0787 
     12 C12        31.5337   -2.8056   -4.9684 C.ar      12 UNK        -0.0862 
     13 C13        30.7060   -2.2597   -5.9537 C.ar      12 UNK        -0.0733 
     14 C14        30.4106   -0.8935   -5.9243 C.ar      12 UNK        -0.0832 
     15 C15        30.1503   -3.1454   -7.0593 C.3       12 UNK         0.0240 
     16 S16        28.4903   -3.7729   -6.6525 S.3       12 UNK        -0.2522 
     17 C17        27.4879   -2.2697   -6.8929 C.3       12 UNK        -0.0967 
     18 CA         25.9804   -2.5602   -7.1210 C.3       5 UNK         0.0660 
     19 N          25.4012   -3.1932   -5.9385 N.am      5 UNK        -0.4015 
     20 C          24.8530   -4.4090   -5.8825 C.2       4 UNK         0.4946 
     21 O          24.6744   -5.1225   -6.8715 O.2       4 UNK        -0.5353 
     22 CA         24.4596   -4.9558   -4.5006 C.3       4 UNK         0.0277 
     23 CB         25.5817   -5.8533   -3.9457 C.3       4 UNK        -0.1981 
     24 N          24.1282   -3.9237   -3.5090 N.am      4 UNK        -0.4209 
     25 C          23.2118   -4.0917   -2.5422 C.2       3 UNK         0.4942 
     26 O          22.5202   -5.1055   -2.4297 O.2       3 UNK        -0.5208 
     27 CA         23.0334   -2.9707   -1.4988 C.3       3 UNK         0.0250 
     28 CB         23.7728   -3.3310   -0.1996 C.3       3 UNK        -0.1990 
     29 N          23.4911   -1.6587   -1.9525 N.am      3 UNK        -0.4232 
     30 C          22.8926   -0.9175   -2.8939 C.2       2 UNK         0.4993 
     31 O          21.8183   -1.2194   -3.4150 O.2       2 UNK        -0.5286 
     32 CA         23.6078    0.3738   -3.3411 C.3       2 UNK         0.0209 
     33 CB         22.8659    1.6107   -2.8071 C.3       2 UNK        -0.1931 
     34 N          25.0308    0.4838   -2.9815 N.am      2 UNK        -0.4546 
     35 C          25.9974   -0.3806   -3.3229 C.2       1 UNK         0.5154 
     36 O          25.7787   -1.4587   -3.8808 O.2       1 UNK        -0.5181 
     37 C          25.2391   -1.2407   -7.4064 C.2       5 UNK         0.5014 
     38 O          24.4059   -0.7977   -6.6116 O.2       5 UNK        -0.5248 
     39 N          25.6043   -0.5976   -8.5222 N.am      6 UNK        -0.4434 
     40 CA         25.3583    0.8263   -8.7501 C.3       6 UNK         0.0363 
     41 CB         25.5301    1.1303  -10.2478 C.3       6 UNK        -0.1936 
     42 C          26.3473    1.6662   -7.9216 C.2       6 UNK         0.5081 
     43 O          27.4391    1.1892   -7.6031 O.2       6 UNK        -0.5248 
     44 N          25.9715    2.9158   -7.6227 N.am      7 UNK        -0.4718 
     45 CA         26.8389    3.8815   -6.9366 C.3       7 UNK         0.0273 
     46 CB         25.9935    5.0614   -6.4319 C.3       7 UNK        -0.1935 
     47 C          27.9985    4.3789   -7.8195 C.2       7 UNK         0.5018 
     48 O          29.0616    4.7101   -7.2949 O.2       7 UNK        -0.5186 
     49 N          27.7858    4.3996   -9.1425 N.am      8 UNK        -0.4240 
     50 CA         28.7851    4.7324  -10.1588 C.3       8 UNK         0.0235 
     51 CB         28.0700    5.3536  -11.3739 C.3       8 UNK        -0.2000 
     52 C          29.6124    3.4865  -10.5282 C.2       8 UNK         0.4941 
     53 O          29.5807    3.0390  -11.6763 O.2       8 UNK        -0.5273 
     54 N          30.3182    2.9340   -9.5382 N.am      9 UNK        -0.4262 
     55 CA         31.1602    1.7448   -9.6301 C.3       9 UNK         0.0264 
     56 CB         30.2836    0.4751   -9.6580 C.3       9 UNK        -0.1955 
     57 C          32.1399    1.7483   -8.4475 C.2       9 UNK         0.5031 
     58 O          32.0881    2.6539   -7.6104 O.2       9 UNK        -0.5390 
     59 N          33.0153    0.7414   -8.3985 N.am      10 UNK        -0.4204 
     60 CA         33.9877    0.5159   -7.3333 C.3       10 UNK         0.0237 
     61 CB         35.3099    1.2253   -7.6792 C.3       10 UNK        -0.1985 
     62 C          34.1887   -0.9940   -7.1626 C.2       10 UNK         0.4970 
     63 O          33.7941   -1.7661   -8.0418 O.2       10 UNK        -0.4914 
     64 N          34.7928   -1.3775   -6.0332 N.am      11 UNK        -0.4285 
     65 CA         35.0462   -2.7705   -5.6411 C.3       11 UNK         0.1007 
     66 C          36.0116   -3.5166   -6.6034 C.2       11 UNK         0.5703 
     67 N          35.8235   -4.8166   -6.7881 N.am      11 UNK        -0.7361 
     68 O          36.9533   -2.9394   -7.1448 O.2       11 UNK        -0.4986 
     69 C69        35.5438   -2.8846   -4.1734 C.3       12 UNK        -0.0947 
     70 S70        34.6603   -1.8532   -2.9495 S.3       12 UNK        -0.2240 
     71 C71        32.9930   -2.5872   -2.9034 C.3       12 UNK         0.0194 
     72 H72        29.3865   -3.4783   -3.2645 H         1 UNK         0.0906 
     73 H73        30.1137   -3.1485   -1.6832 H         1 UNK         0.0906 
     74 H74        28.7061   -4.2079   -1.8154 H         1 UNK         0.0906 
     75 H75        29.0166   -1.1936   -3.6778 H         1 UNK         0.3140 
     76 H76        27.4313    0.4848   -1.9910 H         1 UNK         0.1085 
     77 H77        27.2172    1.9135   -4.0905 H         1 UNK         0.0836 
     78 H78        28.0226    0.6678   -5.0006 H         1 UNK         0.0836 
     79 H79        31.5369    1.9752   -4.8086 H         1 UNK         0.0731 
     80 H80        30.1415    1.7296   -5.8266 H         1 UNK         0.0731 
     81 H81        32.1711   -0.0015   -3.1654 H         1 UNK         0.1312 
     82 H82        31.7625   -3.8623   -4.9888 H         1 UNK         0.1406 
     83 H83        29.7719   -0.4638   -6.6825 H         1 UNK         0.1631 
     84 H84        30.8142   -3.9958   -7.2216 H         1 UNK         0.0717 
     85 H85        30.1253   -2.6019   -8.0050 H         1 UNK         0.0717 
     86 H86        27.6214   -1.6286   -6.0195 H         1 UNK         0.0934 
     87 H87        27.9086   -1.7232   -7.7385 H         1 UNK         0.0934 
     88 H88        25.8644   -3.2008   -7.9975 H         1 UNK         0.0739 
     89 H89        25.4727   -2.6160   -5.1018 H         1 UNK         0.3093 
     90 H90        23.5793   -5.5792   -4.6726 H         1 UNK         0.0818 
     91 H91        25.8541   -6.6298   -4.6619 H         1 UNK         0.0819 
     92 H92        26.4830   -5.2782   -3.7289 H         1 UNK         0.0819 
     93 H93        25.2737   -6.3545   -3.0280 H         1 UNK         0.0819 
     94 H94        24.6531   -3.0552   -3.5391 H         1 UNK         0.3041 
     95 H95        21.9665   -2.8987   -1.2770 H         1 UNK         0.0784 
     96 H96        23.4393   -4.2956    0.1861 H         1 UNK         0.0793 
     97 H97        24.8510   -3.3967   -0.3545 H         1 UNK         0.0793 
     98 H98        23.5896   -2.5917    0.5804 H         1 UNK         0.0793 
     99 H99        24.3759   -1.3356   -1.5879 H         1 UNK         0.3024 
    100 H100       23.5520    0.3900   -4.4314 H         1 UNK         0.1171 
    101 H101       22.9163    1.6721   -1.7193 H         1 UNK         0.0786 
    102 H102       21.8106    1.5849   -3.0832 H         1 UNK         0.0786 
    103 H103       23.2806    2.5317   -3.2173 H         1 UNK         0.0786 
    104 H104       25.2954    1.3328   -2.5022 H         1 UNK         0.2977 
    105 H105       26.3034   -1.0208   -9.1147 H         1 UNK         0.3127 
    106 H106       24.3370    1.0708   -8.4495 H         1 UNK         0.0770 
    107 H107       26.5517    0.9459  -10.5844 H         1 UNK         0.0814 
    108 H108       25.3000    2.1739  -10.4656 H         1 UNK         0.0814 
    109 H109       24.8611    0.5209  -10.8557 H         1 UNK         0.0814 
    110 H110       25.0572    3.2395   -7.9063 H         1 UNK         0.2983 
    111 H111       27.2850    3.3872   -6.0707 H         1 UNK         0.0947 
    112 H112       25.2188    4.7278   -5.7412 H         1 UNK         0.0806 
    113 H113       25.5086    5.5931   -7.2516 H         1 UNK         0.0806 
    114 H114       26.6129    5.7829   -5.8969 H         1 UNK         0.0806 
    115 H115       26.8912    4.0775   -9.4799 H         1 UNK         0.3000 
    116 H116       29.4762    5.4790   -9.7608 H         1 UNK         0.0850 
    117 H117       28.7872    5.6363  -12.1458 H         1 UNK         0.0810 
    118 H118       27.5253    6.2557  -11.0946 H         1 UNK         0.0810 
    119 H119       27.3604    4.6594  -11.8261 H         1 UNK         0.0810 
    120 H120       30.3275    3.3788   -8.6242 H         1 UNK         0.3040 
    121 H121       31.7504    1.8002  -10.5472 H         1 UNK         0.0766 
    122 H122       29.6506    0.4107   -8.7750 H         1 UNK         0.0812 
    123 H123       29.6297    0.4639  -10.5300 H         1 UNK         0.0812 
    124 H124       30.8843   -0.4338   -9.7008 H         1 UNK         0.0812 
    125 H125       32.9631   -0.0119   -9.0735 H         1 UNK         0.3205 
    126 H126       33.5956    0.9079   -6.3919 H         1 UNK         0.0754 
    127 H127       36.0533    1.0823   -6.8941 H         1 UNK         0.0769 
    128 H128       35.1638    2.2998   -7.7922 H         1 UNK         0.0769 
    129 H129       35.7378    0.8463   -8.6083 H         1 UNK         0.0769 
    130 H130       35.0896   -0.6795   -5.3684 H         1 UNK         0.2981 
    131 H131       34.0876   -3.2841   -5.7045 H         1 UNK         0.0541 
    132 H132       35.0653   -5.3051   -6.3381 H         1 UNK         0.3459 
    133 H133       36.4511   -5.3195   -7.3959 H         1 UNK         0.3459 
    134 H134       36.5959   -2.5991   -4.1136 H         1 UNK         0.0612 
    135 H135       35.4974   -3.9230   -3.8407 H         1 UNK         0.0612 
    136 H136       32.5578   -2.3932   -1.9224 H         1 UNK         0.0624 
    137 H137       33.0665   -3.6716   -2.9986 H         1 UNK         0.0624 
@<TRIPOS>BOND
     1    1    2 1    
     2    1   72 1    
     3    1   73 1    
     4    1   74 1    
     5    2    3 2    
     6    2    4 am   BACKBONE|DICT|INTERRES
     7    4    5 1    
     8    4   75 1    
     9    5    6 1    
    10    5   35 1    
    11    5   76 1    
    12    6    7 1    
    13    6   77 1    
    14    6   78 1    
    15    7    8 1    
    16    8    9 1    
    17    8   79 1    
    18    8   80 1    
    19    9   10 ar   
    20    9   14 ar   
    21   10   11 ar   
    22   10   81 1    
    23   11   12 ar   
    24   11   71 1    
    25   12   13 ar   
    26   12   82 1    
    27   13   14 ar   
    28   13   15 1    
    29   14   83 1    
    30   15   16 1    
    31   15   84 1    
    32   15   85 1    
    33   16   17 1    
    34   17   18 1    
    35   17   86 1    
    36   17   87 1    
    37   18   19 1    
    38   18   37 1    
    39   18   88 1    
    40   19   20 am   BACKBONE|DICT|INTERRES
    41   19   89 1    
    42   20   21 2    
    43   20   22 1    
    44   22   23 1    
    45   22   24 1    
    46   22   90 1    
    47   23   91 1    
    48   23   92 1    
    49   23   93 1    
    50   24   25 am   BACKBONE|DICT|INTERRES
    51   24   94 1    
    52   25   26 2    
    53   25   27 1    
    54   27   28 1    
    55   27   29 1    
    56   27   95 1    
    57   28   96 1    
    58   28   97 1    
    59   28   98 1    
    60   29   30 am   BACKBONE|DICT|INTERRES
    61   29   99 1    
    62   30   31 2    
    63   30   32 1    
    64   32   33 1    
    65   32   34 1    
    66   32  100 1    
    67   33  101 1    
    68   33  102 1    
    69   33  103 1    
    70   34   35 am   BACKBONE|DICT|INTERRES
    71   34  104 1    
    72   35   36 2    
    73   37   38 2    
    74   37   39 am   BACKBONE|DICT|INTERRES
    75   39   40 1    
    76   39  105 1    
    77   40   41 1    
    78   40   42 1    
    79   40  106 1    
    80   41  107 1    
    81   41  108 1    
    82   41  109 1    
    83   42   43 2    
    84   42   44 am   BACKBONE|DICT|INTERRES
    85   44   45 1    
    86   44  110 1    
    87   45   46 1    
    88   45   47 1    
    89   45  111 1    
    90   46  112 1    
    91   46  113 1    
    92   46  114 1    
    93   47   48 2    
    94   47   49 am   BACKBONE|DICT|INTERRES
    95   49   50 1    
    96   49  115 1    
    97   50   51 1    
    98   50   52 1    
    99   50  116 1    
   100   51  117 1    
   101   51  118 1    
   102   51  119 1    
   103   52   53 2    
   104   52   54 am   BACKBONE|DICT|INTERRES
   105   54   55 1    
   106   54  120 1    
   107   55   56 1    
   108   55   57 1    
   109   55  121 1    
   110   56  122 1    
   111   56  123 1    
   112   56  124 1    
   113   57   58 2    
   114   57   59 am   BACKBONE|DICT|INTERRES
   115   59   60 1    
   116   59  125 1    
   117   60   61 1    
   118   60   62 1    
   119   60  126 1    
   120   61  127 1    
   121   61  128 1    
   122   61  129 1    
   123   62   63 2    
   124   62   64 am   BACKBONE|DICT|INTERRES
   125   64   65 1    
   126   64  130 1    
   127   65   66 1    
   128   65   69 1    
   129   65  131 1    
   130   66   67 am   BACKBONE|DICT|INTERRES
   131   66   68 2    
   132   67  132 1    
   133   67  133 1    
   134   69   70 1    
   135   69  134 1    
   136   69  135 1    
   137   70   71 1    
   138   71  136 1    
   139   71  137 1    
@<TRIPOS>SUBSTRUCTURE
     1 UNK         1 GROUP             0       ****    0 ROOT    
