@<TRIPOS>MOLECULE
3R137
137   139    1
SMALL
USER_CHARGES


@<TRIPOS>ATOM
      1 CA         30.1000    1.4979   -2.1692 C.3       0 UNK        -0.2020 
      2 C          29.4533    0.1219   -2.2125 C.2       0 UNK         0.4855 
      3 O          28.9707   -0.2901   -3.2639 O.2       0 UNK        -0.5197 
      4 N          29.4432   -0.5941   -1.0816 N.am      1 UNK        -0.4892 
      5 CA         28.7905   -1.8983   -0.9394 C.3       1 UNK         0.0835 
      6 C6         29.3335   -2.6487    0.3024 C.3       12 UNK        -0.0855 
      7 S7         28.9444   -4.4317    0.2918 S.3       12 UNK        -0.2931 
      8 C8         30.4756   -5.1460   -0.3921 C.3       12 UNK         0.0378 
      9 C9         30.6621   -4.7867   -1.8594 C.ar      12 UNK        -0.0802 
     10 C10        31.6964   -3.9304   -2.2573 C.ar      12 UNK        -0.0944 
     11 C11        31.8608   -3.6019   -3.6069 C.ar      12 UNK        -0.0787 
     12 C12        30.9861   -4.1358   -4.5541 C.ar      12 UNK        -0.0862 
     13 C13        29.9324   -4.9653   -4.1674 C.ar      12 UNK        -0.0733 
     14 C14        29.7862   -5.3047   -2.8200 C.ar      12 UNK        -0.0832 
     15 C15        28.9387   -5.4636   -5.2071 C.3       12 UNK         0.0240 
     16 S16        27.3445   -4.5874   -5.0921 S.3       12 UNK        -0.2522 
     17 C17        27.8286   -2.8440   -5.3514 C.3       12 UNK        -0.0967 
     18 CA         27.0324   -2.1392   -6.4763 C.3       5 UNK         0.0660 
     19 N          25.5837   -2.2298   -6.2880 N.am      5 UNK        -0.4015 
     20 C          24.6749   -2.1350   -7.2672 C.2       4 UNK         0.4946 
     21 O          24.9616   -2.0193   -8.4590 O.2       4 UNK        -0.5353 
     22 CA         23.1907   -2.1739   -6.8570 C.3       4 UNK         0.0277 
     23 CB         22.6471   -3.6087   -6.9537 C.3       4 UNK        -0.1981 
     24 N          22.9472   -1.6556   -5.5082 N.am      4 UNK        -0.4209 
     25 C          23.0485   -0.3647   -5.1601 C.2       3 UNK         0.4942 
     26 O          23.2952    0.5421   -5.9553 O.2       3 UNK        -0.5208 
     27 CA         22.8898   -0.0367   -3.6622 C.3       3 UNK         0.0250 
     28 CB         21.4135    0.2250   -3.3234 C.3       3 UNK        -0.1990 
     29 N          23.4287   -1.0593   -2.7518 N.am      3 UNK        -0.4232 
     30 C          24.6949   -1.4994   -2.7616 C.2       2 UNK         0.4993 
     31 O          25.5286   -1.1347   -3.5914 O.2       2 UNK        -0.5286 
     32 CA         25.0748   -2.5692   -1.7241 C.3       2 UNK         0.0209 
     33 CB         24.5654   -3.9502   -2.1698 C.3       2 UNK        -0.1931 
     34 N          26.5275   -2.6416   -1.5450 N.am      2 UNK        -0.4546 
     35 C          27.2564   -1.7250   -0.8952 C.2       1 UNK         0.5154 
     36 O          26.7654   -0.7857   -0.2612 O.2       1 UNK        -0.5181 
     37 C          27.4458   -0.6603   -6.5805 C.2       5 UNK         0.5014 
     38 O          28.1628   -0.2912   -7.5095 O.2       5 UNK        -0.5248 
     39 N          26.9356    0.1651   -5.6529 N.am      6 UNK        -0.4434 
     40 CA         27.2035    1.6012   -5.5178 C.3       6 UNK         0.0363 
     41 CB         26.4897    2.1221   -4.2599 C.3       6 UNK        -0.1936 
     42 C          26.8119    2.4482   -6.7420 C.2       6 UNK         0.5081 
     43 O          27.3093    3.5654   -6.8861 O.2       6 UNK        -0.5248 
     44 N          25.9443    1.9061   -7.6069 N.am      7 UNK        -0.4718 
     45 CA         25.5934    2.4617   -8.9134 C.3       7 UNK         0.0273 
     46 CB         24.4288    1.6490   -9.5013 C.3       7 UNK        -0.1935 
     47 C          26.7757    2.5071   -9.9028 C.2       7 UNK         0.5018 
     48 O          26.7570    3.3441  -10.8067 O.2       7 UNK        -0.5186 
     49 N          27.7759    1.6308   -9.7257 N.am      8 UNK        -0.4240 
     50 CA         29.0187    1.6350  -10.4925 C.3       8 UNK         0.0235 
     51 CB         29.4914    0.1870  -10.7108 C.3       8 UNK        -0.2000 
     52 C          30.0738    2.4345   -9.7196 C.2       8 UNK         0.4941 
     53 O          30.3659    2.1013   -8.5695 O.2       8 UNK        -0.5273 
     54 N          30.6710    3.4411  -10.3725 N.am      9 UNK        -0.4262 
     55 CA         31.7186    4.3003   -9.8012 C.3       9 UNK         0.0264 
     56 CB         32.0318    5.4416  -10.7825 C.3       9 UNK        -0.1955 
     57 C          33.0090    3.5484   -9.4198 C.2       9 UNK         0.5031 
     58 O          33.7257    3.9908   -8.5214 O.2       9 UNK        -0.5390 
     59 N          33.2665    2.4192  -10.0923 N.am      10 UNK        -0.4204 
     60 CA         34.3722    1.5016   -9.8160 C.3       10 UNK         0.0237 
     61 CB         34.7065    0.7375  -11.1095 C.3       10 UNK        -0.1985 
     62 C          34.0883    0.5152   -8.6644 C.2       10 UNK         0.4970 
     63 O          34.9814   -0.2687   -8.3382 O.2       10 UNK        -0.4914 
     64 N          32.8734    0.5310   -8.0918 N.am      11 UNK        -0.4285 
     65 CA         32.3641   -0.3993   -7.0693 C.3       11 UNK         0.1007 
     66 C          32.0926   -1.8221   -7.6335 C.2       11 UNK         0.5703 
     67 N          33.0929   -2.4955   -8.1862 N.am      11 UNK        -0.7361 
     68 O          30.9688   -2.3126   -7.5850 O.2       11 UNK        -0.4986 
     69 C69        33.2324   -0.4168   -5.7758 C.3       12 UNK        -0.0947 
     70 S70        32.3123   -0.9771   -4.3054 S.3       12 UNK        -0.2240 
     71 C71        32.9643   -2.6596   -4.0609 C.3       12 UNK         0.0194 
     72 H72        30.5120    1.7256   -1.1867 H         1 UNK         0.0906 
     73 H73        30.9085    1.5527   -2.8978 H         1 UNK         0.0906 
     74 H74        29.3659    2.2635   -2.4179 H         1 UNK         0.0906 
     75 H75        29.8178   -0.1929   -0.2341 H         1 UNK         0.3140 
     76 H76        29.0411   -2.4779   -1.8312 H         1 UNK         0.1085 
     77 H77        28.9443   -2.2097    1.2233 H         1 UNK         0.0836 
     78 H78        30.4176   -2.5384    0.3604 H         1 UNK         0.0836 
     79 H79        30.4315   -6.2317   -0.2950 H         1 UNK         0.0731 
     80 H80        31.3294   -4.8217    0.2050 H         1 UNK         0.0731 
     81 H81        32.3681   -3.5142   -1.5190 H         1 UNK         0.1312 
     82 H82        31.1072   -3.8759   -5.5954 H         1 UNK         0.1406 
     83 H83        28.9728   -5.9492   -2.5144 H         1 UNK         0.1631 
     84 H84        28.7686   -6.5318   -5.0664 H         1 UNK         0.0717 
     85 H85        29.3385   -5.3458   -6.2157 H         1 UNK         0.0717 
     86 H86        27.7089   -2.3270   -4.3985 H         1 UNK         0.0934 
     87 H87        28.8916   -2.7840   -5.5851 H         1 UNK         0.0934 
     88 H88        27.2910   -2.6247   -7.4201 H         1 UNK         0.0739 
     89 H89        25.2728   -2.2466   -5.3253 H         1 UNK         0.3093 
     90 H90        22.6392   -1.5505   -7.5644 H         1 UNK         0.0818 
     91 H91        22.7890   -4.0117   -7.9576 H         1 UNK         0.0819 
     92 H92        23.1525   -4.2812   -6.2591 H         1 UNK         0.0819 
     93 H93        21.5785   -3.6445   -6.7408 H         1 UNK         0.0819 
     94 H94        22.7274   -2.3297   -4.7895 H         1 UNK         0.3041 
     95 H95        23.4468    0.8833   -3.4751 H         1 UNK         0.0784 
     96 H96        20.9953    0.9964   -3.9719 H         1 UNK         0.0793 
     97 H97        20.8042   -0.6710   -3.4483 H         1 UNK         0.0793 
     98 H98        21.2965    0.5715   -2.2964 H         1 UNK         0.0793 
     99 H99        22.7932   -1.4191   -2.0536 H         1 UNK         0.3024 
    100 H100       24.6165   -2.3068   -0.7678 H         1 UNK         0.1171 
    101 H101       24.8325   -4.7223   -1.4478 H         1 UNK         0.0786 
    102 H102       23.4787   -3.9605   -2.2620 H         1 UNK         0.0786 
    103 H103       24.9774   -4.2412   -3.1369 H         1 UNK         0.0786 
    104 H104       27.0060   -3.3735   -2.0495 H         1 UNK         0.2977 
    105 H105       26.3905   -0.2549   -4.8999 H         1 UNK         0.3127 
    106 H106       28.2805    1.7129   -5.3767 H         1 UNK         0.0770 
    107 H107       25.4065    2.0460   -4.3571 H         1 UNK         0.0814 
    108 H108       26.7303    3.1704   -4.0791 H         1 UNK         0.0814 
    109 H109       26.7867    1.5621   -3.3728 H         1 UNK         0.0814 
    110 H110       25.5548    1.0028   -7.3753 H         1 UNK         0.2983 
    111 H111       25.2565    3.4890   -8.7595 H         1 UNK         0.0947 
    112 H112       24.7080    0.6073   -9.6666 H         1 UNK         0.0806 
    113 H113       24.1112    2.0588  -10.4610 H         1 UNK         0.0806 
    114 H114       23.5619    1.6618   -8.8399 H         1 UNK         0.0806 
    115 H115       27.7625    1.0169   -8.9141 H         1 UNK         0.3000 
    116 H116       28.8564    2.0896  -11.4723 H         1 UNK         0.0850 
    117 H117       30.4084    0.1588  -11.3006 H         1 UNK         0.0810 
    118 H118       28.7425   -0.3967  -11.2461 H         1 UNK         0.0810 
    119 H119       29.6960   -0.3209   -9.7667 H         1 UNK         0.0810 
    120 H120       30.3752    3.6555  -11.3148 H         1 UNK         0.3040 
    121 H121       31.3190    4.7385   -8.8839 H         1 UNK         0.0766 
    122 H122       31.1466    6.0441  -10.9876 H         1 UNK         0.0812 
    123 H123       32.4117    5.0655  -11.7333 H         1 UNK         0.0812 
    124 H124       32.7884    6.1122  -10.3722 H         1 UNK         0.0812 
    125 H125       32.6231    2.1470  -10.8211 H         1 UNK         0.3205 
    126 H126       35.2502    2.0845   -9.5297 H         1 UNK         0.0754 
    127 H127       35.5672    0.0821  -10.9680 H         1 UNK         0.0769 
    128 H128       34.9561    1.4211  -11.9214 H         1 UNK         0.0769 
    129 H129       33.8737    0.1141  -11.4379 H         1 UNK         0.0769 
    130 H130       32.1841    1.1994   -8.4193 H         1 UNK         0.2981 
    131 H131       31.3898    0.0133   -6.8007 H         1 UNK         0.0541 
    132 H132       32.9330   -3.4148   -8.5652 H         1 UNK         0.3459 
    133 H133       34.0033   -2.0572   -8.2558 H         1 UNK         0.3459 
    134 H134       34.1379   -1.0114   -5.9047 H         1 UNK         0.0612 
    135 H135       33.5750    0.5950   -5.5549 H         1 UNK         0.0612 
    136 H136       33.3960   -3.0376   -4.9888 H         1 UNK         0.0624 
    137 H137       33.7750   -2.6290   -3.3316 H         1 UNK         0.0624 
@<TRIPOS>BOND
     1    1    2 1    
     2    1   72 1    
     3    1   73 1    
     4    1   74 1    
     5    2    3 2    
     6    2    4 am   BACKBONE|DICT|INTERRES
     7    4    5 1    
     8    4   75 1    
     9    5    6 1    
    10    5   35 1    
    11    5   76 1    
    12    6    7 1    
    13    6   77 1    
    14    6   78 1    
    15    7    8 1    
    16    8    9 1    
    17    8   79 1    
    18    8   80 1    
    19    9   10 ar   
    20    9   14 ar   
    21   10   11 ar   
    22   10   81 1    
    23   11   12 ar   
    24   11   71 1    
    25   12   13 ar   
    26   12   82 1    
    27   13   14 ar   
    28   13   15 1    
    29   14   83 1    
    30   15   16 1    
    31   15   84 1    
    32   15   85 1    
    33   16   17 1    
    34   17   18 1    
    35   17   86 1    
    36   17   87 1    
    37   18   19 1    
    38   18   37 1    
    39   18   88 1    
    40   19   20 am   BACKBONE|DICT|INTERRES
    41   19   89 1    
    42   20   21 2    
    43   20   22 1    
    44   22   23 1    
    45   22   24 1    
    46   22   90 1    
    47   23   91 1    
    48   23   92 1    
    49   23   93 1    
    50   24   25 am   BACKBONE|DICT|INTERRES
    51   24   94 1    
    52   25   26 2    
    53   25   27 1    
    54   27   28 1    
    55   27   29 1    
    56   27   95 1    
    57   28   96 1    
    58   28   97 1    
    59   28   98 1    
    60   29   30 am   BACKBONE|DICT|INTERRES
    61   29   99 1    
    62   30   31 2    
    63   30   32 1    
    64   32   33 1    
    65   32   34 1    
    66   32  100 1    
    67   33  101 1    
    68   33  102 1    
    69   33  103 1    
    70   34   35 am   BACKBONE|DICT|INTERRES
    71   34  104 1    
    72   35   36 2    
    73   37   38 2    
    74   37   39 am   BACKBONE|DICT|INTERRES
    75   39   40 1    
    76   39  105 1    
    77   40   41 1    
    78   40   42 1    
    79   40  106 1    
    80   41  107 1    
    81   41  108 1    
    82   41  109 1    
    83   42   43 2    
    84   42   44 am   BACKBONE|DICT|INTERRES
    85   44   45 1    
    86   44  110 1    
    87   45   46 1    
    88   45   47 1    
    89   45  111 1    
    90   46  112 1    
    91   46  113 1    
    92   46  114 1    
    93   47   48 2    
    94   47   49 am   BACKBONE|DICT|INTERRES
    95   49   50 1    
    96   49  115 1    
    97   50   51 1    
    98   50   52 1    
    99   50  116 1    
   100   51  117 1    
   101   51  118 1    
   102   51  119 1    
   103   52   53 2    
   104   52   54 am   BACKBONE|DICT|INTERRES
   105   54   55 1    
   106   54  120 1    
   107   55   56 1    
   108   55   57 1    
   109   55  121 1    
   110   56  122 1    
   111   56  123 1    
   112   56  124 1    
   113   57   58 2    
   114   57   59 am   BACKBONE|DICT|INTERRES
   115   59   60 1    
   116   59  125 1    
   117   60   61 1    
   118   60   62 1    
   119   60  126 1    
   120   61  127 1    
   121   61  128 1    
   122   61  129 1    
   123   62   63 2    
   124   62   64 am   BACKBONE|DICT|INTERRES
   125   64   65 1    
   126   64  130 1    
   127   65   66 1    
   128   65   69 1    
   129   65  131 1    
   130   66   67 am   BACKBONE|DICT|INTERRES
   131   66   68 2    
   132   67  132 1    
   133   67  133 1    
   134   69   70 1    
   135   69  134 1    
   136   69  135 1    
   137   70   71 1    
   138   71  136 1    
   139   71  137 1    
@<TRIPOS>SUBSTRUCTURE
     1 UNK         1 GROUP             0       ****    0 ROOT    
