@<TRIPOS>MOLECULE
3R137
137   139    1
SMALL
USER_CHARGES


@<TRIPOS>ATOM
      1 CA         26.6304   -7.6583    0.4421 C.3       0 UNK        -0.2020 
      2 C          26.6382   -6.1624    0.7190 C.2       0 UNK         0.4855 
      3 O          25.8872   -5.6953    1.5755 O.2       0 UNK        -0.5197 
      4 N          27.4839   -5.4085    0.0031 N.am      1 UNK        -0.4892 
      5 CA         27.6059   -3.9479    0.1155 C.3       1 UNK         0.0835 
      6 C6         28.9015   -3.4444   -0.5681 C.3       12 UNK        -0.0855 
      7 S7         29.5542   -1.9100    0.1724 S.3       12 UNK        -0.2931 
      8 C8         31.2539   -1.8921   -0.4870 C.3       12 UNK         0.0378 
      9 C9         31.2748   -1.5771   -1.9764 C.ar      12 UNK        -0.0802 
     10 C10        31.4452   -0.2631   -2.4187 C.ar      12 UNK        -0.0944 
     11 C11        31.4533    0.0390   -3.7840 C.ar      12 UNK        -0.0787 
     12 C12        31.2489   -0.9950   -4.7091 C.ar      12 UNK        -0.0862 
     13 C13        31.0939   -2.3197   -4.2816 C.ar      12 UNK        -0.0733 
     14 C14        31.1266   -2.6009   -2.9142 C.ar      12 UNK        -0.0832 
     15 C15        30.9212   -3.4762   -5.2645 C.3       12 UNK         0.0240 
     16 S16        29.9174   -3.0990   -6.7375 S.3       12 UNK        -0.2522 
     17 C17        28.3265   -2.5636   -6.0263 C.3       12 UNK        -0.0967 
     18 CA         27.5875   -1.5863   -6.9729 C.3       5 UNK         0.0660 
     19 N          26.1554   -1.5201   -6.6675 N.am      5 UNK        -0.4015 
     20 C          25.2344   -1.0047   -7.4972 C.2       4 UNK         0.4946 
     21 O          25.4971   -0.5550   -8.6118 O.2       4 UNK        -0.5353 
     22 CA         23.7811   -0.9359   -6.9930 C.3       4 UNK         0.0277 
     23 CB         23.0330   -2.2339   -7.3355 C.3       4 UNK        -0.1981 
     24 N          23.6724   -0.6751   -5.5566 N.am      4 UNK        -0.4209 
     25 C          24.1759    0.3966   -4.9274 C.2       3 UNK         0.4942 
     26 O          24.7187    1.3340   -5.5096 O.2       3 UNK        -0.5208 
     27 CA         24.1190    0.4058   -3.3900 C.3       3 UNK         0.0250 
     28 CB         22.9552    1.2839   -2.9041 C.3       3 UNK        -0.1990 
     29 N          24.0156   -0.9245   -2.7764 N.am      3 UNK        -0.4232 
     30 C          24.9098   -1.9149   -2.9102 C.2       2 UNK         0.4993 
     31 O          25.9118   -1.8506   -3.6291 O.2       2 UNK        -0.5286 
     32 CA         24.5866   -3.2241   -2.1742 C.3       2 UNK         0.0209 
     33 CB         24.0397   -4.2694   -3.1607 C.3       2 UNK        -0.1931 
     34 N          25.7639   -3.7696   -1.5001 N.am      2 UNK        -0.4546 
     35 C          26.3598   -3.2169   -0.4328 C.2       1 UNK         0.5154 
     36 O          25.9465   -2.2009    0.1294 O.2       1 UNK        -0.5181 
     37 C          28.2318   -0.1831   -6.9873 C.2       5 UNK         0.5014 
     38 O          29.0580    0.1014   -7.8587 O.2       5 UNK        -0.5248 
     39 N          27.8077    0.6778   -6.0502 N.am      6 UNK        -0.4434 
     40 CA         28.2123    2.0807   -5.9708 C.3       6 UNK         0.0363 
     41 CB         27.8362    2.6555   -4.5958 C.3       6 UNK        -0.1936 
     42 C          27.6098    2.9213   -7.1067 C.2       6 UNK         0.5081 
     43 O          28.3162    3.7516   -7.6758 O.2       6 UNK        -0.5248 
     44 N          26.3373    2.6684   -7.4470 N.am      7 UNK        -0.4718 
     45 CA         25.6296    3.2965   -8.5679 C.3       7 UNK         0.0273 
     46 CB         24.1413    2.9181   -8.5192 C.3       7 UNK        -0.1935 
     47 C          26.2390    2.9389   -9.9346 C.2       7 UNK         0.5018 
     48 O          26.3637    3.8171  -10.7886 O.2       7 UNK        -0.5186 
     49 N          26.6433    1.6713  -10.1027 N.am      8 UNK        -0.4240 
     50 CA         27.3979    1.1836  -11.2616 C.3       8 UNK         0.0235 
     51 CB         27.3514   -0.3535  -11.2795 C.3       8 UNK        -0.2000 
     52 C          28.8614    1.6651  -11.2880 C.2       8 UNK         0.4941 
     53 O          29.4922    1.5887  -12.3429 O.2       8 UNK        -0.5273 
     54 N          29.3732    2.1247  -10.1355 N.am      9 UNK        -0.4262 
     55 CA         30.7515    2.5419   -9.8605 C.3       9 UNK         0.0264 
     56 CB         31.1079    3.8235  -10.6424 C.3       9 UNK        -0.1955 
     57 C          31.7652    1.4011  -10.0683 C.2       9 UNK         0.5031 
     58 O          32.8736    1.6390  -10.5517 O.2       9 UNK        -0.5390 
     59 N          31.3780    0.1790   -9.6795 N.am      10 UNK        -0.4204 
     60 CA         32.1783   -1.0427   -9.8145 C.3       10 UNK         0.0237 
     61 CB         31.2448   -2.2010  -10.2115 C.3       10 UNK        -0.1985 
     62 C          32.9960   -1.3303   -8.5392 C.2       10 UNK         0.4970 
     63 O          33.1803   -2.4898   -8.1675 O.2       10 UNK        -0.4914 
     64 N          33.4596   -0.2606   -7.8844 N.am      11 UNK        -0.4285 
     65 CA         34.1258   -0.2675   -6.5744 C.3       11 UNK         0.1007 
     66 C          35.6154   -0.7157   -6.5965 C.2       11 UNK         0.5703 
     67 N          36.2358   -0.9137   -7.7537 N.am      11 UNK        -0.7361 
     68 O          36.2190   -0.8938   -5.5413 O.2       11 UNK        -0.4986 
     69 C69        33.9560    1.0979   -5.8490 C.3       12 UNK        -0.0947 
     70 S70        32.2508    1.7605   -5.9074 S.3       12 UNK        -0.2240 
     71 C71        31.6623    1.4961   -4.2000 C.3       12 UNK         0.0194 
     72 H72        25.6401   -7.9737    0.1146 H         1 UNK         0.0906 
     73 H73        27.3471   -7.9354   -0.3307 H         1 UNK         0.0906 
     74 H74        26.8805   -8.2087    1.3488 H         1 UNK         0.0906 
     75 H75        28.0836   -5.8530   -0.6781 H         1 UNK         0.3140 
     76 H76        27.6671   -3.7192    1.1823 H         1 UNK         0.1085 
     77 H77        29.6844   -4.1989   -0.4736 H         1 UNK         0.0836 
     78 H78        28.7506   -3.2979   -1.6396 H         1 UNK         0.0836 
     79 H79        31.8333   -1.1458    0.0588 H         1 UNK         0.0731 
     80 H80        31.7384   -2.8502   -0.2929 H         1 UNK         0.0731 
     81 H81        31.5721    0.5298   -1.6939 H         1 UNK         0.1312 
     82 H82        31.2228   -0.7775   -5.7674 H         1 UNK         0.1406 
     83 H83        31.0207   -3.6223   -2.5753 H         1 UNK         0.1631 
     84 H84        30.4719   -4.3364   -4.7657 H         1 UNK         0.0717 
     85 H85        31.9102   -3.7935   -5.5977 H         1 UNK         0.0717 
     86 H86        27.7275   -3.4620   -5.8689 H         1 UNK         0.0934 
     87 H87        28.4676   -2.1225   -5.0376 H         1 UNK         0.0934 
     88 H88        27.6676   -1.9810   -7.9887 H         1 UNK         0.0739 
     89 H89        25.8777   -1.8164   -5.7378 H         1 UNK         0.3093 
     90 H90        23.2900   -0.1117   -7.5130 H         1 UNK         0.0818 
     91 H91        21.9777   -2.1664   -7.0707 H         1 UNK         0.0819 
     92 H92        23.0830   -2.4409   -8.4057 H         1 UNK         0.0819 
     93 H93        23.4562   -3.0953   -6.8171 H         1 UNK         0.0819 
     94 H94        23.2316   -1.3889   -4.9958 H         1 UNK         0.3041 
     95 H95        25.0526    0.8520   -3.0410 H         1 UNK         0.0784 
     96 H96        23.0220    2.2884   -3.3253 H         1 UNK         0.0793 
     97 H97        21.9882    0.8722   -3.1960 H         1 UNK         0.0793 
     98 H98        22.9631    1.3903   -1.8191 H         1 UNK         0.0793 
     99 H99        23.2143   -1.0747   -2.1797 H         1 UNK         0.3024 
    100 H100       23.8259   -3.0303   -1.4142 H         1 UNK         0.1171 
    101 H101       23.1384   -3.9070   -3.6568 H         1 UNK         0.0786 
    102 H102       23.7751   -5.1961   -2.6508 H         1 UNK         0.0786 
    103 H103       24.7657   -4.5100   -3.9388 H         1 UNK         0.0786 
    104 H104       26.1760   -4.5986   -1.9013 H         1 UNK         0.2977 
    105 H105       27.0995    0.3729   -5.3980 H         1 UNK         0.3127 
    106 H106       29.2977    2.1219   -6.0732 H         1 UNK         0.0770 
    107 H107       26.7567    2.6854   -4.4469 H         1 UNK         0.0814 
    108 H108       28.2061    3.6762   -4.4901 H         1 UNK         0.0814 
    109 H109       28.2689    2.0679   -3.7860 H         1 UNK         0.0814 
    110 H110       25.8012    2.0241   -6.8691 H         1 UNK         0.2983 
    111 H111       25.7108    4.3785   -8.4432 H         1 UNK         0.0947 
    112 H112       23.5827    3.4350   -9.3006 H         1 UNK         0.0806 
    113 H113       23.6922    3.1901   -7.5637 H         1 UNK         0.0806 
    114 H114       23.9933    1.8487   -8.6672 H         1 UNK         0.0806 
    115 H115       26.4189    0.9859   -9.3854 H         1 UNK         0.3000 
    116 H116       26.9136    1.5542  -12.1675 H         1 UNK         0.0850 
    117 H117       27.8790   -0.7528  -12.1467 H         1 UNK         0.0810 
    118 H118       26.3254   -0.7189  -11.3277 H         1 UNK         0.0810 
    119 H119       27.8166   -0.7796  -10.3894 H         1 UNK         0.0810 
    120 H120       28.7617    2.1305   -9.3294 H         1 UNK         0.3040 
    121 H121       30.7855    2.7843   -8.7970 H         1 UNK         0.0766 
    122 H122       30.3777    4.6122  -10.4608 H         1 UNK         0.0812 
    123 H123       31.1502    3.6445  -11.7171 H         1 UNK         0.0812 
    124 H124       32.0820    4.2082  -10.3383 H         1 UNK         0.0812 
    125 H125       30.4899    0.0902   -9.1884 H         1 UNK         0.3205 
    126 H126       32.9018   -0.9189  -10.6229 H         1 UNK         0.0754 
    127 H127       31.7941   -3.1367  -10.3222 H         1 UNK         0.0769 
    128 H128       30.7559   -2.0002  -11.1650 H         1 UNK         0.0769 
    129 H129       30.4642   -2.3611   -9.4691 H         1 UNK         0.0769 
    130 H130       33.2883    0.6512   -8.2813 H         1 UNK         0.2981 
    131 H131       33.6243   -1.0218   -5.9685 H         1 UNK         0.0541 
    132 H132       35.7478   -0.7748   -8.6237 H         1 UNK         0.3459 
    133 H133       37.1997   -1.2078   -7.7544 H         1 UNK         0.3459 
    134 H134       34.6063    1.8469   -6.3042 H         1 UNK         0.0612 
    135 H135       34.2732    1.0157   -4.8079 H         1 UNK         0.0612 
    136 H136       30.7177    2.0247   -4.0781 H         1 UNK         0.0624 
    137 H137       32.3688    1.9763   -3.5213 H         1 UNK         0.0624 
@<TRIPOS>BOND
     1    1    2 1    
     2    1   72 1    
     3    1   73 1    
     4    1   74 1    
     5    2    3 2    
     6    2    4 am   BACKBONE|DICT|INTERRES
     7    4    5 1    
     8    4   75 1    
     9    5    6 1    
    10    5   35 1    
    11    5   76 1    
    12    6    7 1    
    13    6   77 1    
    14    6   78 1    
    15    7    8 1    
    16    8    9 1    
    17    8   79 1    
    18    8   80 1    
    19    9   10 ar   
    20    9   14 ar   
    21   10   11 ar   
    22   10   81 1    
    23   11   12 ar   
    24   11   71 1    
    25   12   13 ar   
    26   12   82 1    
    27   13   14 ar   
    28   13   15 1    
    29   14   83 1    
    30   15   16 1    
    31   15   84 1    
    32   15   85 1    
    33   16   17 1    
    34   17   18 1    
    35   17   86 1    
    36   17   87 1    
    37   18   19 1    
    38   18   37 1    
    39   18   88 1    
    40   19   20 am   BACKBONE|DICT|INTERRES
    41   19   89 1    
    42   20   21 2    
    43   20   22 1    
    44   22   23 1    
    45   22   24 1    
    46   22   90 1    
    47   23   91 1    
    48   23   92 1    
    49   23   93 1    
    50   24   25 am   BACKBONE|DICT|INTERRES
    51   24   94 1    
    52   25   26 2    
    53   25   27 1    
    54   27   28 1    
    55   27   29 1    
    56   27   95 1    
    57   28   96 1    
    58   28   97 1    
    59   28   98 1    
    60   29   30 am   BACKBONE|DICT|INTERRES
    61   29   99 1    
    62   30   31 2    
    63   30   32 1    
    64   32   33 1    
    65   32   34 1    
    66   32  100 1    
    67   33  101 1    
    68   33  102 1    
    69   33  103 1    
    70   34   35 am   BACKBONE|DICT|INTERRES
    71   34  104 1    
    72   35   36 2    
    73   37   38 2    
    74   37   39 am   BACKBONE|DICT|INTERRES
    75   39   40 1    
    76   39  105 1    
    77   40   41 1    
    78   40   42 1    
    79   40  106 1    
    80   41  107 1    
    81   41  108 1    
    82   41  109 1    
    83   42   43 2    
    84   42   44 am   BACKBONE|DICT|INTERRES
    85   44   45 1    
    86   44  110 1    
    87   45   46 1    
    88   45   47 1    
    89   45  111 1    
    90   46  112 1    
    91   46  113 1    
    92   46  114 1    
    93   47   48 2    
    94   47   49 am   BACKBONE|DICT|INTERRES
    95   49   50 1    
    96   49  115 1    
    97   50   51 1    
    98   50   52 1    
    99   50  116 1    
   100   51  117 1    
   101   51  118 1    
   102   51  119 1    
   103   52   53 2    
   104   52   54 am   BACKBONE|DICT|INTERRES
   105   54   55 1    
   106   54  120 1    
   107   55   56 1    
   108   55   57 1    
   109   55  121 1    
   110   56  122 1    
   111   56  123 1    
   112   56  124 1    
   113   57   58 2    
   114   57   59 am   BACKBONE|DICT|INTERRES
   115   59   60 1    
   116   59  125 1    
   117   60   61 1    
   118   60   62 1    
   119   60  126 1    
   120   61  127 1    
   121   61  128 1    
   122   61  129 1    
   123   62   63 2    
   124   62   64 am   BACKBONE|DICT|INTERRES
   125   64   65 1    
   126   64  130 1    
   127   65   66 1    
   128   65   69 1    
   129   65  131 1    
   130   66   67 am   BACKBONE|DICT|INTERRES
   131   66   68 2    
   132   67  132 1    
   133   67  133 1    
   134   69   70 1    
   135   69  134 1    
   136   69  135 1    
   137   70   71 1    
   138   71  136 1    
   139   71  137 1    
@<TRIPOS>SUBSTRUCTURE
     1 UNK         1 GROUP             0       ****    0 ROOT    
