@<TRIPOS>MOLECULE
3R137
137   139    1
SMALL
USER_CHARGES


@<TRIPOS>ATOM
      1 CA         25.6188    0.1818    2.0472 C.3       0 UNK        -0.2020 
      2 C          26.3569   -0.5463    0.9335 C.2       0 UNK         0.4855 
      3 O          26.2138   -0.1809   -0.2313 O.2       0 UNK        -0.5197 
      4 N          27.1482   -1.5667    1.2873 N.am      1 UNK        -0.4892 
      5 CA         27.8964   -2.4267    0.3632 C.3       1 UNK         0.0835 
      6 C6         28.9457   -3.2491    1.1568 C.3       12 UNK        -0.0855 
      7 S7         30.0268   -4.3423    0.1706 S.3       12 UNK        -0.2931 
      8 C8         31.3677   -3.2212   -0.3412 C.3       12 UNK         0.0378 
      9 C9         31.0556   -2.5363   -1.6643 C.ar      12 UNK        -0.0802 
     10 C10        31.0158   -3.2896   -2.8420 C.ar      12 UNK        -0.0944 
     11 C11        30.7588   -2.6778   -4.0716 C.ar      12 UNK        -0.0787 
     12 C12        30.5379   -1.2994   -4.1186 C.ar      12 UNK        -0.0862 
     13 C13        30.5866   -0.5322   -2.9504 C.ar      12 UNK        -0.0733 
     14 C14        30.8438   -1.1550   -1.7245 C.ar      12 UNK        -0.0832 
     15 C15        30.3827    0.9742   -3.0233 C.3       12 UNK         0.0240 
     16 S16        28.7624    1.5090   -2.3819 S.3       12 UNK        -0.2522 
     17 C17        27.5811    0.4364   -3.2709 C.3       12 UNK        -0.0967 
     18 CA         27.4793    0.6963   -4.7951 C.3       5 UNK         0.0660 
     19 N          26.9931   -0.4957   -5.5060 N.am      5 UNK        -0.4015 
     20 C          27.0006   -0.6506   -6.8409 C.2       4 UNK         0.4946 
     21 O          27.4510    0.1975   -7.6068 O.2       4 UNK        -0.5353 
     22 CA         26.3771   -1.9219   -7.4505 C.3       4 UNK         0.0277 
     23 CB         27.4695   -2.8650   -7.9816 C.3       4 UNK        -0.1981 
     24 N          25.4992   -2.6650   -6.5451 N.am      4 UNK        -0.4209 
     25 C          24.3379   -2.2182   -6.0451 C.2       3 UNK         0.4942 
     26 O          23.8338   -1.1363   -6.3481 O.2       3 UNK        -0.5208 
     27 CA         23.6646   -3.1008   -4.9737 C.3       3 UNK         0.0250 
     28 CB         22.6456   -4.0506   -5.6233 C.3       3 UNK        -0.1990 
     29 N          24.6079   -3.8791   -4.1528 N.am      3 UNK        -0.4232 
     30 C          25.6103   -3.3482   -3.4371 C.2       2 UNK         0.4993 
     31 O          25.8530   -2.1408   -3.4142 O.2       2 UNK        -0.5286 
     32 CA         26.5443   -4.3253   -2.7061 C.3       2 UNK         0.0209 
     33 CB         27.4981   -4.9963   -3.7092 C.3       2 UNK        -0.1931 
     34 N          27.3499   -3.6172   -1.7104 N.am      2 UNK        -0.4546 
     35 C          26.9396   -3.3078   -0.4747 C.2       1 UNK         0.5154 
     36 O          25.8748   -3.7024    0.0113 O.2       1 UNK        -0.5181 
     37 C          26.6689    1.9740   -5.1190 C.2       5 UNK         0.5014 
     38 O          27.1947    3.0770   -4.9639 O.2       5 UNK        -0.5248 
     39 N          25.4321    1.8170   -5.6202 N.am      6 UNK        -0.4434 
     40 CA         24.5928    2.9003   -6.1442 C.3       6 UNK         0.0363 
     41 CB         23.2002    2.3399   -6.4735 C.3       6 UNK        -0.1936 
     42 C          25.1891    3.6148   -7.3758 C.2       6 UNK         0.5081 
     43 O          24.8325    4.7652   -7.6321 O.2       6 UNK        -0.5248 
     44 N          26.0895    2.9407   -8.1013 N.am      7 UNK        -0.4718 
     45 CA         26.8709    3.4829   -9.2083 C.3       7 UNK         0.0273 
     46 CB         26.1681    3.1674  -10.5429 C.3       7 UNK        -0.1935 
     47 C          28.2752    2.8762   -9.1034 C.2       7 UNK         0.5018 
     48 O          28.6829    2.1268   -9.9906 O.2       7 UNK        -0.5186 
     49 N          28.9503    3.1706   -7.9792 N.am      8 UNK        -0.4240 
     50 CA         30.1357    2.4976   -7.4217 C.3       8 UNK         0.0235 
     51 CB         30.6928    3.3397   -6.2627 C.3       8 UNK        -0.2000 
     52 C          31.2689    2.1063   -8.3864 C.2       8 UNK         0.4941 
     53 O          31.9357    1.1019   -8.1353 O.2       8 UNK        -0.5273 
     54 N          31.4428    2.8511   -9.4876 N.am      9 UNK        -0.4262 
     55 CA         32.3341    2.5104  -10.6034 C.3       9 UNK         0.0264 
     56 CB         32.2632    3.6183  -11.6660 C.3       9 UNK        -0.1955 
     57 C          32.0432    1.1345  -11.2397 C.2       9 UNK         0.5031 
     58 O          32.9714    0.4993  -11.7426 O.2       9 UNK        -0.5390 
     59 N          30.7866    0.6687  -11.1579 N.am      10 UNK        -0.4204 
     60 CA         30.3466   -0.6717  -11.5565 C.3       10 UNK         0.0237 
     61 CB         28.8153   -0.7565  -11.4420 C.3       10 UNK        -0.1985 
     62 C          31.0040   -1.8138  -10.7575 C.2       10 UNK         0.4970 
     63 O          31.0464   -2.9368  -11.2617 O.2       10 UNK        -0.4914 
     64 N          31.5150   -1.5212   -9.5522 N.am      11 UNK        -0.4285 
     65 CA         32.3287   -2.4475   -8.7519 C.3       11 UNK         0.1007 
     66 C          33.7899   -2.6168   -9.2728 C.2       11 UNK         0.5703 
     67 N          34.2636   -1.8191  -10.2254 N.am      11 UNK        -0.7361 
     68 O          34.5081   -3.5037   -8.8182 O.2       11 UNK        -0.4986 
     69 C69        32.2796   -2.0762   -7.2426 C.3       12 UNK        -0.0947 
     70 S70        32.3535   -3.5462   -6.1604 S.3       12 UNK        -0.2240 
     71 C71        30.7279   -3.5103   -5.3443 C.3       12 UNK         0.0194 
     72 H72        25.8932    1.2364    2.0513 H         1 UNK         0.0906 
     73 H73        24.5426    0.1105    1.8918 H         1 UNK         0.0906 
     74 H74        25.8479   -0.2318    3.0291 H         1 UNK         0.0906 
     75 H75        27.1919   -1.8343    2.2603 H         1 UNK         0.3140 
     76 H76        28.4252   -1.7669   -0.3277 H         1 UNK         0.1085 
     77 H77        28.4390   -3.8783    1.8913 H         1 UNK         0.0836 
     78 H78        29.5782   -2.5765    1.7386 H         1 UNK         0.0836 
     79 H79        32.2820   -3.8050   -0.4579 H         1 UNK         0.0731 
     80 H80        31.5739   -2.4932    0.4449 H         1 UNK         0.0731 
     81 H81        31.1923   -4.3560   -2.7995 H         1 UNK         0.1312 
     82 H82        30.3397   -0.8211   -5.0673 H         1 UNK         0.1406 
     83 H83        30.8844   -0.5598   -0.8220 H         1 UNK         0.1631 
     84 H84        30.4970    1.3280   -4.0481 H         1 UNK         0.0717 
     85 H85        31.1657    1.4713   -2.4490 H         1 UNK         0.0717 
     86 H86        27.8853   -0.5927   -3.0795 H         1 UNK         0.0934 
     87 H87        26.6011    0.5303   -2.7993 H         1 UNK         0.0934 
     88 H88        28.4853    0.8734   -5.1739 H         1 UNK         0.0739 
     89 H89        26.5724   -1.2119   -4.9184 H         1 UNK         0.3093 
     90 H90        25.7740   -1.5931   -8.2996 H         1 UNK         0.0818 
     91 H91        27.0417   -3.6516   -8.6034 H         1 UNK         0.0819 
     92 H92        28.1945   -2.3292   -8.5964 H         1 UNK         0.0819 
     93 H93        28.0171   -3.3438   -7.1713 H         1 UNK         0.0819 
     94 H94        25.8268   -3.5685   -6.2371 H         1 UNK         0.3041 
     95 H95        23.1263   -2.4307   -4.3001 H         1 UNK         0.0784 
     96 H96        21.9206   -3.4954   -6.2206 H         1 UNK         0.0793 
     97 H97        23.1281   -4.7717   -6.2843 H         1 UNK         0.0793 
     98 H98        22.0839   -4.6056   -4.8716 H         1 UNK         0.0793 
     99 H99        24.4749   -4.8806   -4.1404 H         1 UNK         0.3024 
    100 H100       25.9415   -5.0897   -2.2100 H         1 UNK         0.1171 
    101 H101       28.2100   -5.6497   -3.2038 H         1 UNK         0.0786 
    102 H102       26.9518   -5.6103   -4.4261 H         1 UNK         0.0786 
    103 H103       28.0664   -4.2588   -4.2766 H         1 UNK         0.0786 
    104 H104       28.2362   -3.2528   -2.0299 H         1 UNK         0.2977 
    105 H105       25.0694    0.8779   -5.7251 H         1 UNK         0.3127 
    106 H106       24.4859    3.6478   -5.3553 H         1 UNK         0.0770 
    107 H107       23.2479    1.5725   -7.2475 H         1 UNK         0.0814 
    108 H108       22.5370    3.1272   -6.8348 H         1 UNK         0.0814 
    109 H109       22.7300    1.8993   -5.5942 H         1 UNK         0.0814 
    110 H110       26.3577    2.0050   -7.8096 H         1 UNK         0.2983 
    111 H111       26.9727    4.5661   -9.1102 H         1 UNK         0.0947 
    112 H112       26.7458    3.5460  -11.3870 H         1 UNK         0.0806 
    113 H113       25.1820    3.6296  -10.5898 H         1 UNK         0.0806 
    114 H114       26.0422    2.0934  -10.6870 H         1 UNK         0.0806 
    115 H115       28.4853    3.7960   -7.3356 H         1 UNK         0.3000 
    116 H116       29.7718    1.5574   -7.0057 H         1 UNK         0.0850 
    117 H117       31.5651    2.8631   -5.8127 H         1 UNK         0.0810 
    118 H118       29.9533    3.4675   -5.4716 H         1 UNK         0.0810 
    119 H119       31.0004    4.3306   -6.5988 H         1 UNK         0.0810 
    120 H120       30.8306    3.6429   -9.6206 H         1 UNK         0.3040 
    121 H121       33.3516    2.4757  -10.2086 H         1 UNK         0.0766 
    122 H122       32.5590    4.5837  -11.2549 H         1 UNK         0.0812 
    123 H123       31.2574    3.7197  -12.0760 H         1 UNK         0.0812 
    124 H124       32.9347    3.4035  -12.4987 H         1 UNK         0.0812 
    125 H125       30.0758    1.2588  -10.7221 H         1 UNK         0.3205 
    126 H126       30.6215   -0.8091  -12.6042 H         1 UNK         0.0754 
    127 H127       28.4494   -1.7330  -11.7620 H         1 UNK         0.0769 
    128 H128       28.3289   -0.0068  -12.0665 H         1 UNK         0.0769 
    129 H129       28.4798   -0.6011  -10.4153 H         1 UNK         0.0769 
    130 H130       31.4795   -0.5661   -9.2119 H         1 UNK         0.2981 
    131 H131       31.8640   -3.4293   -8.8622 H         1 UNK         0.0541 
    132 H132       33.6952   -1.0865  -10.6342 H         1 UNK         0.3459 
    133 H133       35.2078   -1.9549  -10.5492 H         1 UNK         0.3459 
    134 H134       31.3599   -1.5339   -7.0228 H         1 UNK         0.0612 
    135 H135       33.0862   -1.3917   -6.9730 H         1 UNK         0.0612 
    136 H136       30.4367   -4.5354   -5.1104 H         1 UNK         0.0624 
    137 H137       29.9727   -3.1290   -6.0302 H         1 UNK         0.0624 
@<TRIPOS>BOND
     1    1    2 1    
     2    1   72 1    
     3    1   73 1    
     4    1   74 1    
     5    2    3 2    
     6    2    4 am   BACKBONE|DICT|INTERRES
     7    4    5 1    
     8    4   75 1    
     9    5    6 1    
    10    5   35 1    
    11    5   76 1    
    12    6    7 1    
    13    6   77 1    
    14    6   78 1    
    15    7    8 1    
    16    8    9 1    
    17    8   79 1    
    18    8   80 1    
    19    9   10 ar   
    20    9   14 ar   
    21   10   11 ar   
    22   10   81 1    
    23   11   12 ar   
    24   11   71 1    
    25   12   13 ar   
    26   12   82 1    
    27   13   14 ar   
    28   13   15 1    
    29   14   83 1    
    30   15   16 1    
    31   15   84 1    
    32   15   85 1    
    33   16   17 1    
    34   17   18 1    
    35   17   86 1    
    36   17   87 1    
    37   18   19 1    
    38   18   37 1    
    39   18   88 1    
    40   19   20 am   BACKBONE|DICT|INTERRES
    41   19   89 1    
    42   20   21 2    
    43   20   22 1    
    44   22   23 1    
    45   22   24 1    
    46   22   90 1    
    47   23   91 1    
    48   23   92 1    
    49   23   93 1    
    50   24   25 am   BACKBONE|DICT|INTERRES
    51   24   94 1    
    52   25   26 2    
    53   25   27 1    
    54   27   28 1    
    55   27   29 1    
    56   27   95 1    
    57   28   96 1    
    58   28   97 1    
    59   28   98 1    
    60   29   30 am   BACKBONE|DICT|INTERRES
    61   29   99 1    
    62   30   31 2    
    63   30   32 1    
    64   32   33 1    
    65   32   34 1    
    66   32  100 1    
    67   33  101 1    
    68   33  102 1    
    69   33  103 1    
    70   34   35 am   BACKBONE|DICT|INTERRES
    71   34  104 1    
    72   35   36 2    
    73   37   38 2    
    74   37   39 am   BACKBONE|DICT|INTERRES
    75   39   40 1    
    76   39  105 1    
    77   40   41 1    
    78   40   42 1    
    79   40  106 1    
    80   41  107 1    
    81   41  108 1    
    82   41  109 1    
    83   42   43 2    
    84   42   44 am   BACKBONE|DICT|INTERRES
    85   44   45 1    
    86   44  110 1    
    87   45   46 1    
    88   45   47 1    
    89   45  111 1    
    90   46  112 1    
    91   46  113 1    
    92   46  114 1    
    93   47   48 2    
    94   47   49 am   BACKBONE|DICT|INTERRES
    95   49   50 1    
    96   49  115 1    
    97   50   51 1    
    98   50   52 1    
    99   50  116 1    
   100   51  117 1    
   101   51  118 1    
   102   51  119 1    
   103   52   53 2    
   104   52   54 am   BACKBONE|DICT|INTERRES
   105   54   55 1    
   106   54  120 1    
   107   55   56 1    
   108   55   57 1    
   109   55  121 1    
   110   56  122 1    
   111   56  123 1    
   112   56  124 1    
   113   57   58 2    
   114   57   59 am   BACKBONE|DICT|INTERRES
   115   59   60 1    
   116   59  125 1    
   117   60   61 1    
   118   60   62 1    
   119   60  126 1    
   120   61  127 1    
   121   61  128 1    
   122   61  129 1    
   123   62   63 2    
   124   62   64 am   BACKBONE|DICT|INTERRES
   125   64   65 1    
   126   64  130 1    
   127   65   66 1    
   128   65   69 1    
   129   65  131 1    
   130   66   67 am   BACKBONE|DICT|INTERRES
   131   66   68 2    
   132   67  132 1    
   133   67  133 1    
   134   69   70 1    
   135   69  134 1    
   136   69  135 1    
   137   70   71 1    
   138   71  136 1    
   139   71  137 1    
@<TRIPOS>SUBSTRUCTURE
     1 UNK         1 GROUP             0       ****    0 ROOT    
