@<TRIPOS>MOLECULE
3R137
137   139    1
SMALL
USER_CHARGES


@<TRIPOS>ATOM
      1 CA         28.1013   -8.6574   -4.9516 C.3       0 UNK        -0.2020 
      2 C          27.7024   -7.6133   -3.9197 C.2       0 UNK         0.4855 
      3 O          27.3444   -7.9678   -2.7964 O.2       0 UNK        -0.5197 
      4 N          27.7595   -6.3276   -4.2919 N.am      1 UNK        -0.4892 
      5 CA         27.4374   -5.1848   -3.4221 C.3       1 UNK         0.0835 
      6 C6         28.0008   -3.8498   -3.9792 C.3       12 UNK        -0.0855 
      7 S7         29.7889   -3.9437   -4.3315 S.3       12 UNK        -0.2931 
      8 C8         30.5092   -3.2144   -2.8229 C.3       12 UNK         0.0378 
      9 C9         30.5753   -1.6915   -2.8657 C.ar      12 UNK        -0.0802 
     10 C10        31.1753   -1.0455   -3.9506 C.ar      12 UNK        -0.0944 
     11 C11        31.2923    0.3450   -3.9788 C.ar      12 UNK        -0.0787 
     12 C12        30.8310    1.0957   -2.8962 C.ar      12 UNK        -0.0862 
     13 C13        30.2266    0.4671   -1.8027 C.ar      12 UNK        -0.0733 
     14 C14        30.0938   -0.9268   -1.7967 C.ar      12 UNK        -0.0832 
     15 C15        29.7484    1.2910   -0.6143 C.3       12 UNK         0.0240 
     16 S16        28.0141    1.8188   -0.7907 S.3       12 UNK        -0.2522 
     17 C17        28.1367    3.0949   -2.0913 C.3       12 UNK        -0.0967 
     18 CA         27.6302    2.5746   -3.4583 C.3       5 UNK         0.0660 
     19 N          26.2100    2.1989   -3.3956 N.am      5 UNK        -0.4015 
     20 C          25.5156    1.6325   -4.3881 C.2       4 UNK         0.4946 
     21 O          25.9557    1.4829   -5.5286 O.2       4 UNK        -0.5353 
     22 CA         24.0700    1.2142   -4.0771 C.3       4 UNK         0.0277 
     23 CB         23.1118    2.3869   -4.3430 C.3       4 UNK        -0.1981 
     24 N          23.6611    0.0691   -4.8944 N.am      4 UNK        -0.4209 
     25 C          24.2087   -1.1504   -4.8142 C.2       3 UNK         0.4942 
     26 O          25.0537   -1.4734   -3.9752 O.2       3 UNK        -0.5208 
     27 CA         23.7686   -2.1599   -5.8866 C.3       3 UNK         0.0250 
     28 CB         24.6000   -1.9679   -7.1674 C.3       3 UNK        -0.1990 
     29 N          23.9405   -3.5324   -5.4134 N.am      3 UNK        -0.4232 
     30 C          23.1513   -4.1421   -4.5179 C.2       2 UNK         0.4993 
     31 O          22.0937   -3.6698   -4.0984 O.2       2 UNK        -0.5286 
     32 CA         23.6292   -5.5093   -3.9974 C.3       2 UNK         0.0209 
     33 CB         23.0047   -6.6506   -4.8168 C.3       2 UNK        -0.1931 
     34 N          25.0900   -5.6354   -4.0255 N.am      2 UNK        -0.4546 
     35 C          25.9229   -5.0529   -3.1485 C.2       1 UNK         0.5154 
     36 O          25.5397   -4.4298   -2.1578 O.2       1 UNK        -0.5181 
     37 C          27.9848    3.5699   -4.5870 C.2       5 UNK         0.5014 
     38 O          29.1245    3.5653   -5.0522 O.2       5 UNK        -0.5248 
     39 N          27.0157    4.3902   -5.0167 N.am      6 UNK        -0.4434 
     40 CA         27.1491    5.3062   -6.1521 C.3       6 UNK         0.0363 
     41 CB         26.1441    6.4574   -5.9798 C.3       6 UNK        -0.1936 
     42 C          26.9455    4.6235   -7.5201 C.2       6 UNK         0.5081 
     43 O          27.3543    5.1938   -8.5321 O.2       6 UNK        -0.5248 
     44 N          26.2988    3.4500   -7.5431 N.am      7 UNK        -0.4718 
     45 CA         25.9464    2.7056   -8.7554 C.3       7 UNK         0.0273 
     46 CB         24.4760    2.2652   -8.6539 C.3       7 UNK        -0.1935 
     47 C          26.8477    1.4807   -8.9777 C.2       7 UNK         0.5018 
     48 O          27.0390    1.0876  -10.1292 O.2       7 UNK        -0.5186 
     49 N          27.3592    0.8884   -7.8885 N.am      8 UNK        -0.4240 
     50 CA         28.2205   -0.2951   -7.8672 C.3       8 UNK         0.0235 
     51 CB         28.5437   -0.6519   -6.4062 C.3       8 UNK        -0.2000 
     52 C          29.5075   -0.1058   -8.6905 C.2       8 UNK         0.4941 
     53 O          30.3296    0.7510   -8.3605 O.2       8 UNK        -0.5273 
     54 N          29.6577   -0.9176   -9.7457 N.am      9 UNK        -0.4262 
     55 CA         30.7589   -0.8435  -10.7118 C.3       9 UNK         0.0264 
     56 CB         30.3728   -1.6370  -11.9711 C.3       9 UNK        -0.1955 
     57 C          32.1161   -1.3271  -10.1709 C.2       9 UNK         0.5031 
     58 O          33.1425   -1.0179  -10.7777 O.2       9 UNK        -0.5390 
     59 N          32.1123   -2.0659   -9.0514 N.am      10 UNK        -0.4204 
     60 CA         33.2954   -2.6525   -8.4092 C.3       10 UNK         0.0237 
     61 CB         32.8463   -3.5182   -7.2206 C.3       10 UNK        -0.1985 
     62 C          34.3676   -1.6361   -7.9682 C.2       10 UNK         0.4970 
     63 O          35.5355   -2.0128   -7.8626 O.2       10 UNK        -0.4914 
     64 N          33.9662   -0.3791   -7.7408 N.am      11 UNK        -0.4285 
     65 CA         34.8703    0.7493   -7.4690 C.3       11 UNK         0.1007 
     66 C          35.5316    1.3530   -8.7441 C.2       11 UNK         0.5703 
     67 N          35.1826    0.9324   -9.9552 N.am      11 UNK        -0.7361 
     68 O          36.3976    2.2176   -8.6312 O.2       11 UNK        -0.4986 
     69 C69        34.1771    1.8449   -6.6170 C.3       12 UNK        -0.0947 
     70 S70        33.7040    1.2342   -4.9659 S.3       12 UNK        -0.2240 
     71 C71        31.9134    1.0309   -5.1824 C.3       12 UNK         0.0194 
     72 H72        28.3989   -8.2045   -5.8972 H         1 UNK         0.0906 
     73 H73        28.9384   -9.2489   -4.5816 H         1 UNK         0.0906 
     74 H74        27.2673   -9.3313   -5.1456 H         1 UNK         0.0906 
     75 H75        28.1013   -6.0887   -5.2125 H         1 UNK         0.3140 
     76 H76        27.9102   -5.3656   -2.4540 H         1 UNK         0.1085 
     77 H77        27.8140   -3.0279   -3.2841 H         1 UNK         0.0836 
     78 H78        27.4926   -3.5752   -4.9057 H         1 UNK         0.0836 
     79 H79        31.5248   -3.5956   -2.7085 H         1 UNK         0.0731 
     80 H80        29.9532   -3.5625   -1.9509 H         1 UNK         0.0731 
     81 H81        31.5546   -1.6281   -4.7768 H         1 UNK         0.1312 
     82 H82        30.9435    2.1706   -2.9120 H         1 UNK         0.1406 
     83 H83        29.6359   -1.4154   -0.9473 H         1 UNK         0.1631 
     84 H84        30.3870    2.1645   -0.4733 H         1 UNK         0.0717 
     85 H85        29.8407    0.7033    0.3003 H         1 UNK         0.0717 
     86 H86        27.5547    3.9629   -1.7756 H         1 UNK         0.0934 
     87 H87        29.1682    3.4444   -2.1565 H         1 UNK         0.0934 
     88 H88        28.1729    1.6569   -3.6948 H         1 UNK         0.0739 
     89 H89        25.7756    2.2917   -2.4887 H         1 UNK         0.3093 
     90 H90        24.0025    0.9249   -3.0261 H         1 UNK         0.0818 
     91 H91        23.3616    3.2481   -3.7219 H         1 UNK         0.0819 
     92 H92        23.1510    2.7134   -5.3835 H         1 UNK         0.0819 
     93 H93        22.0805    2.1166   -4.1151 H         1 UNK         0.0819 
     94 H94        23.0009    0.2574   -5.6341 H         1 UNK         0.3041 
     95 H95        22.7136   -1.9963   -6.1175 H         1 UNK         0.0784 
     96 H96        24.4951   -0.9549   -7.5584 H         1 UNK         0.0793 
     97 H97        25.6624   -2.1342   -6.9855 H         1 UNK         0.0793 
     98 H98        24.2823   -2.6523   -7.9541 H         1 UNK         0.0793 
     99 H99        24.8015   -3.9901   -5.6689 H         1 UNK         0.3024 
    100 H100       23.2907   -5.6025   -2.9626 H         1 UNK         0.1171 
    101 H101       23.3093   -6.6130   -5.8634 H         1 UNK         0.0786 
    102 H102       23.2877   -7.6253   -4.4186 H         1 UNK         0.0786 
    103 H103       21.9153   -6.5962   -4.7923 H         1 UNK         0.0786 
    104 H104       25.4955   -6.1649   -4.7838 H         1 UNK         0.2977 
    105 H105       26.1097    4.3392   -4.5747 H         1 UNK         0.3127 
    106 H106       28.1550    5.7321   -6.1467 H         1 UNK         0.0770 
    107 H107       26.2375    7.1813   -6.7906 H         1 UNK         0.0814 
    108 H108       26.3126    6.9961   -5.0472 H         1 UNK         0.0814 
    109 H109       25.1138    6.0990   -5.9814 H         1 UNK         0.0814 
    110 H110       26.0641    2.9979   -6.6644 H         1 UNK         0.2983 
    111 H111       26.0464    3.3466   -9.6341 H         1 UNK         0.0947 
    112 H112       24.1718    1.7091   -9.5418 H         1 UNK         0.0806 
    113 H113       23.8112    3.1247   -8.5668 H         1 UNK         0.0806 
    114 H114       24.3053    1.6214   -7.7903 H         1 UNK         0.0806 
    115 H115       27.0633    1.2395   -6.9811 H         1 UNK         0.3000 
    116 H116       27.6463   -1.1187   -8.2956 H         1 UNK         0.0850 
    117 H117       29.0465    0.1709   -5.8967 H         1 UNK         0.0810 
    118 H118       29.1964   -1.5235   -6.3455 H         1 UNK         0.0810 
    119 H119       27.6399   -0.8839   -5.8418 H         1 UNK         0.0810 
    120 H120       28.9255   -1.5821   -9.9530 H         1 UNK         0.3040 
    121 H121       30.8843    0.2036  -10.9964 H         1 UNK         0.0766 
    122 H122       29.4589   -1.2483  -12.4209 H         1 UNK         0.0812 
    123 H123       30.2182   -2.6943  -11.7520 H         1 UNK         0.0812 
    124 H124       31.1553   -1.5730  -12.7289 H         1 UNK         0.0812 
    125 H125       31.2191   -2.2690   -8.6281 H         1 UNK         0.3205 
    126 H126       33.7677   -3.3070   -9.1447 H         1 UNK         0.0754 
    127 H127       32.1916   -4.3282   -7.5428 H         1 UNK         0.0769 
    128 H128       32.3107   -2.9326   -6.4745 H         1 UNK         0.0769 
    129 H129       33.7021   -3.9763   -6.7225 H         1 UNK         0.0769 
    130 H130       32.9927   -0.1481   -7.8728 H         1 UNK         0.2981 
    131 H131       35.7039    0.3693   -6.8751 H         1 UNK         0.0541 
    132 H132       34.4780    0.2136  -10.0886 H         1 UNK         0.3459 
    133 H133       35.6339    1.3380  -10.7593 H         1 UNK         0.3459 
    134 H134       33.3027    2.2432   -7.1353 H         1 UNK         0.0612 
    135 H135       34.8475    2.6917   -6.4589 H         1 UNK         0.0612 
    136 H136       31.7206    0.4428   -6.0799 H         1 UNK         0.0624 
    137 H137       31.4506    2.0055   -5.3453 H         1 UNK         0.0624 
@<TRIPOS>BOND
     1    1    2 1    
     2    1   72 1    
     3    1   73 1    
     4    1   74 1    
     5    2    3 2    
     6    2    4 am   BACKBONE|DICT|INTERRES
     7    4    5 1    
     8    4   75 1    
     9    5    6 1    
    10    5   35 1    
    11    5   76 1    
    12    6    7 1    
    13    6   77 1    
    14    6   78 1    
    15    7    8 1    
    16    8    9 1    
    17    8   79 1    
    18    8   80 1    
    19    9   10 ar   
    20    9   14 ar   
    21   10   11 ar   
    22   10   81 1    
    23   11   12 ar   
    24   11   71 1    
    25   12   13 ar   
    26   12   82 1    
    27   13   14 ar   
    28   13   15 1    
    29   14   83 1    
    30   15   16 1    
    31   15   84 1    
    32   15   85 1    
    33   16   17 1    
    34   17   18 1    
    35   17   86 1    
    36   17   87 1    
    37   18   19 1    
    38   18   37 1    
    39   18   88 1    
    40   19   20 am   BACKBONE|DICT|INTERRES
    41   19   89 1    
    42   20   21 2    
    43   20   22 1    
    44   22   23 1    
    45   22   24 1    
    46   22   90 1    
    47   23   91 1    
    48   23   92 1    
    49   23   93 1    
    50   24   25 am   BACKBONE|DICT|INTERRES
    51   24   94 1    
    52   25   26 2    
    53   25   27 1    
    54   27   28 1    
    55   27   29 1    
    56   27   95 1    
    57   28   96 1    
    58   28   97 1    
    59   28   98 1    
    60   29   30 am   BACKBONE|DICT|INTERRES
    61   29   99 1    
    62   30   31 2    
    63   30   32 1    
    64   32   33 1    
    65   32   34 1    
    66   32  100 1    
    67   33  101 1    
    68   33  102 1    
    69   33  103 1    
    70   34   35 am   BACKBONE|DICT|INTERRES
    71   34  104 1    
    72   35   36 2    
    73   37   38 2    
    74   37   39 am   BACKBONE|DICT|INTERRES
    75   39   40 1    
    76   39  105 1    
    77   40   41 1    
    78   40   42 1    
    79   40  106 1    
    80   41  107 1    
    81   41  108 1    
    82   41  109 1    
    83   42   43 2    
    84   42   44 am   BACKBONE|DICT|INTERRES
    85   44   45 1    
    86   44  110 1    
    87   45   46 1    
    88   45   47 1    
    89   45  111 1    
    90   46  112 1    
    91   46  113 1    
    92   46  114 1    
    93   47   48 2    
    94   47   49 am   BACKBONE|DICT|INTERRES
    95   49   50 1    
    96   49  115 1    
    97   50   51 1    
    98   50   52 1    
    99   50  116 1    
   100   51  117 1    
   101   51  118 1    
   102   51  119 1    
   103   52   53 2    
   104   52   54 am   BACKBONE|DICT|INTERRES
   105   54   55 1    
   106   54  120 1    
   107   55   56 1    
   108   55   57 1    
   109   55  121 1    
   110   56  122 1    
   111   56  123 1    
   112   56  124 1    
   113   57   58 2    
   114   57   59 am   BACKBONE|DICT|INTERRES
   115   59   60 1    
   116   59  125 1    
   117   60   61 1    
   118   60   62 1    
   119   60  126 1    
   120   61  127 1    
   121   61  128 1    
   122   61  129 1    
   123   62   63 2    
   124   62   64 am   BACKBONE|DICT|INTERRES
   125   64   65 1    
   126   64  130 1    
   127   65   66 1    
   128   65   69 1    
   129   65  131 1    
   130   66   67 am   BACKBONE|DICT|INTERRES
   131   66   68 2    
   132   67  132 1    
   133   67  133 1    
   134   69   70 1    
   135   69  134 1    
   136   69  135 1    
   137   70   71 1    
   138   71  136 1    
   139   71  137 1    
@<TRIPOS>SUBSTRUCTURE
     1 UNK         1 GROUP             0       ****    0 ROOT    
