@<TRIPOS>MOLECULE
3R137
137   139    1
SMALL
USER_CHARGES


@<TRIPOS>ATOM
      1 CA         23.6656   -4.6565   -1.9477 C.3       0 UNK        -0.2020 
      2 C          24.8193   -3.7489   -1.5486 C.2       0 UNK         0.4855 
      3 O          24.6443   -2.5320   -1.4567 O.2       0 UNK        -0.5197 
      4 N          25.9963   -4.3377   -1.3009 N.am      1 UNK        -0.4892 
      5 CA         27.2250   -3.6435   -0.9022 C.3       1 UNK         0.0835 
      6 C6         28.3263   -4.6117   -0.3841 C.3       12 UNK        -0.0855 
      7 S7         28.5496   -6.1441   -1.3542 S.3       12 UNK        -0.2931 
      8 C8         30.3367   -6.1233   -1.7333 C.3       12 UNK         0.0378 
      9 C9         30.6743   -5.3036   -2.9731 C.ar      12 UNK        -0.0802 
     10 C10        31.7174   -4.3695   -2.9501 C.ar      12 UNK        -0.0944 
     11 C11        32.0425   -3.6413   -4.1009 C.ar      12 UNK        -0.0787 
     12 C12        31.3148   -3.8489   -5.2748 C.ar      12 UNK        -0.0862 
     13 C13        30.2725   -4.7767   -5.3089 C.ar      12 UNK        -0.0733 
     14 C14        29.9665   -5.5095   -4.1615 C.ar      12 UNK        -0.0832 
     15 C15        29.4549   -4.9700   -6.5745 C.3       12 UNK         0.0240 
     16 S16        27.8996   -4.0332   -6.4868 S.3       12 UNK        -0.2522 
     17 C17        28.5339   -2.3231   -6.5049 C.3       12 UNK        -0.0967 
     18 CA         27.4358   -1.3266   -6.9205 C.3       5 UNK         0.0660 
     19 N          26.3838   -1.2339   -5.9025 N.am      5 UNK        -0.4015 
     20 C          25.1565   -0.7459   -6.1263 C.2       4 UNK         0.4946 
     21 O          24.8156   -0.2081   -7.1805 O.2       4 UNK        -0.5353 
     22 CA         24.1445   -0.8780   -4.9794 C.3       4 UNK         0.0277 
     23 CB         23.7002   -2.3390   -4.8125 C.3       4 UNK        -0.1981 
     24 N          24.6879   -0.3729   -3.7186 N.am      4 UNK        -0.4209 
     25 C          24.8331    0.9319   -3.4470 C.2       3 UNK         0.4942 
     26 O          24.4416    1.8360   -4.1858 O.2       3 UNK        -0.5208 
     27 CA         25.5621    1.2945   -2.1437 C.3       3 UNK         0.0250 
     28 CB         24.6089    1.2067   -0.9408 C.3       3 UNK        -0.1990 
     29 N          26.7476    0.4709   -1.8946 N.am      3 UNK        -0.4232 
     30 C          27.8227    0.4058   -2.6956 C.2       2 UNK         0.4993 
     31 O          27.9255    1.0252   -3.7512 O.2       2 UNK        -0.5286 
     32 CA         28.9758   -0.5081   -2.2491 C.3       2 UNK         0.0209 
     33 CB         29.9687    0.2914   -1.3899 C.3       2 UNK        -0.1931 
     34 N          28.5191   -1.6686   -1.4835 N.am      2 UNK        -0.4546 
     35 C          27.7370   -2.6448   -1.9637 C.2       1 UNK         0.5154 
     36 O          27.3832   -2.7224   -3.1447 O.2       1 UNK        -0.5181 
     37 C          28.0108    0.0349   -7.3685 C.2       5 UNK         0.5014 
     38 O          28.6163    0.1006   -8.4417 O.2       5 UNK        -0.5248 
     39 N          27.7513    1.1146   -6.6154 N.am      6 UNK        -0.4434 
     40 CA         27.9788    2.5053   -7.0229 C.3       6 UNK         0.0363 
     41 CB         27.5544    3.4561   -5.8923 C.3       6 UNK        -0.1936 
     42 C          27.2638    2.8958   -8.3299 C.2       6 UNK         0.5081 
     43 O          27.7821    3.7409   -9.0584 O.2       6 UNK        -0.5248 
     44 N          26.1343    2.2433   -8.6493 N.am      7 UNK        -0.4718 
     45 CA         25.4252    2.3961   -9.9261 C.3       7 UNK         0.0273 
     46 CB         24.0644    1.6875   -9.8425 C.3       7 UNK        -0.1935 
     47 C          26.2258    1.8823  -11.1397 C.2       7 UNK         0.5018 
     48 O          25.9955    2.3544  -12.2532 O.2       7 UNK        -0.5186 
     49 N          27.1606    0.9518  -10.9021 N.am      8 UNK        -0.4240 
     50 CA         28.1241    0.4441  -11.8810 C.3       8 UNK         0.0235 
     51 CB         28.2106   -1.0858  -11.7299 C.3       8 UNK        -0.2000 
     52 C          29.5138    1.0897  -11.7067 C.2       8 UNK         0.4941 
     53 O          30.4492    0.6797  -12.3949 O.2       8 UNK        -0.5273 
     54 N          29.6369    2.0584  -10.7830 N.am      9 UNK        -0.4262 
     55 CA         30.8606    2.7433  -10.3475 C.3       9 UNK         0.0264 
     56 CB         31.4562    3.5907  -11.4920 C.3       9 UNK        -0.1955 
     57 C          31.9025    1.8122   -9.6912 C.2       9 UNK         0.5031 
     58 O          33.0866    2.1546   -9.6628 O.2       9 UNK        -0.5390 
     59 N          31.4592    0.6665   -9.1573 N.am      10 UNK        -0.4204 
     60 CA         32.3009   -0.3153   -8.4803 C.3       10 UNK         0.0237 
     61 CB         31.8763   -1.7274   -8.9202 C.3       10 UNK        -0.1985 
     62 C          32.1690   -0.0961   -6.9695 C.2       10 UNK         0.4970 
     63 O          31.2441   -0.6281   -6.3594 O.2       10 UNK        -0.4914 
     64 N          33.0567    0.7452   -6.4261 N.am      11 UNK        -0.4285 
     65 CA         33.1724    1.2136   -5.0296 C.3       11 UNK         0.1007 
     66 C          31.9471    1.9642   -4.4216 C.2       11 UNK         0.5703 
     67 N          30.7321    1.7517   -4.9032 N.am      11 UNK        -0.7361 
     68 O          32.1155    2.7705   -3.5098 O.2       11 UNK        -0.4986 
     69 C69        33.7847    0.1532   -4.0631 C.3       12 UNK        -0.0947 
     70 S70        32.6078   -1.0566   -3.3608 S.3       12 UNK        -0.2240 
     71 C71        33.1699   -2.6206   -4.0886 C.3       12 UNK         0.0194 
     72 H72        23.7941   -5.6629   -1.5498 H         1 UNK         0.0906 
     73 H73        22.7240   -4.2630   -1.5655 H         1 UNK         0.0906 
     74 H74        23.5925   -4.7252   -3.0321 H         1 UNK         0.0906 
     75 H75        26.1010   -5.3334   -1.4397 H         1 UNK         0.3140 
     76 H76        26.9355   -3.0252   -0.0489 H         1 UNK         0.1085 
     77 H77        29.2834   -4.0983   -0.2749 H         1 UNK         0.0836 
     78 H78        28.0620   -4.9266    0.6267 H         1 UNK         0.0836 
     79 H79        30.8930   -5.7726   -0.8626 H         1 UNK         0.0731 
     80 H80        30.6624   -7.1496   -1.9073 H         1 UNK         0.0731 
     81 H81        32.2781   -4.2055   -2.0399 H         1 UNK         0.1312 
     82 H82        31.5475   -3.2716   -6.1583 H         1 UNK         0.1406 
     83 H83        29.1580   -6.2275   -4.1891 H         1 UNK         0.1631 
     84 H84        30.0214   -4.6640   -7.4556 H         1 UNK         0.0717 
     85 H85        29.2260   -6.0282   -6.7085 H         1 UNK         0.0717 
     86 H86        28.9424   -2.0710   -5.5239 H         1 UNK         0.0934 
     87 H87        29.3675   -2.2876   -7.2034 H         1 UNK         0.0934 
     88 H88        26.9633   -1.7294   -7.8195 H         1 UNK         0.0739 
     89 H89        26.5922   -1.6648   -5.0089 H         1 UNK         0.3093 
     90 H90        23.2633   -0.2872   -5.2399 H         1 UNK         0.0818 
     91 H91        22.9425   -2.4337   -4.0346 H         1 UNK         0.0819 
     92 H92        23.2661   -2.7224   -5.7369 H         1 UNK         0.0819 
     93 H93        24.5366   -2.9886   -4.5512 H         1 UNK         0.0819 
     94 H94        24.9949   -1.0561   -3.0342 H         1 UNK         0.3041 
     95 H95        25.8995    2.3292   -2.2361 H         1 UNK         0.0784 
     96 H96        23.7241    1.8250   -1.0989 H         1 UNK         0.0793 
     97 H97        24.2662    0.1853   -0.7693 H         1 UNK         0.0793 
     98 H98        25.0886    1.5583   -0.0272 H         1 UNK         0.0793 
     99 H99        26.7442   -0.0861   -1.0533 H         1 UNK         0.3024 
    100 H100       29.4872   -0.8663   -3.1465 H         1 UNK         0.1171 
    101 H101       30.8135   -0.3232   -1.0796 H         1 UNK         0.0786 
    102 H102       30.3728    1.1362   -1.9482 H         1 UNK         0.0786 
    103 H103       29.4988    0.6920   -0.4909 H         1 UNK         0.0786 
    104 H104       28.7746   -1.6839   -0.5065 H         1 UNK         0.2977 
    105 H105       27.3638    0.9775   -5.6868 H         1 UNK         0.3127 
    106 H106       29.0508    2.6258   -7.1912 H         1 UNK         0.0770 
    107 H107       26.5128    3.3023   -5.6070 H         1 UNK         0.0814 
    108 H108       27.6610    4.4989   -6.1947 H         1 UNK         0.0814 
    109 H109       28.1683    3.3204   -5.0032 H         1 UNK         0.0814 
    110 H110       25.7713    1.5439   -8.0090 H         1 UNK         0.2983 
    111 H111       25.2468    3.4623  -10.0827 H         1 UNK         0.0947 
    112 H112       23.4871    1.8422  -10.7551 H         1 UNK         0.0806 
    113 H113       23.4678    2.0672   -9.0129 H         1 UNK         0.0806 
    114 H114       24.1784    0.6111   -9.7080 H         1 UNK         0.0806 
    115 H115       27.3077    0.6431   -9.9470 H         1 UNK         0.3000 
    116 H116       27.7873    0.6699  -12.8949 H         1 UNK         0.0850 
    117 H117       27.2337   -1.5525  -11.8566 H         1 UNK         0.0810 
    118 H118       28.5960   -1.3745  -10.7511 H         1 UNK         0.0810 
    119 H119       28.8735   -1.5179  -12.4807 H         1 UNK         0.0810 
    120 H120       28.7989    2.3492  -10.2930 H         1 UNK         0.3040 
    121 H121       30.5490    3.4327   -9.5616 H         1 UNK         0.0766 
    122 H122       30.7064    4.2504  -11.9286 H         1 UNK         0.0812 
    123 H123       31.8613    2.9673  -12.2894 H         1 UNK         0.0812 
    124 H124       32.2687    4.2222  -11.1306 H         1 UNK         0.0812 
    125 H125       30.4583    0.4889   -9.1301 H         1 UNK         0.3205 
    126 H126       33.3497   -0.1902   -8.7583 H         1 UNK         0.0754 
    127 H127       30.8030   -1.8800   -8.8220 H         1 UNK         0.0769 
    128 H128       32.3807   -2.4941   -8.3313 H         1 UNK         0.0769 
    129 H129       32.1326   -1.9006   -9.9655 H         1 UNK         0.0769 
    130 H130       33.7201    1.1715   -7.0573 H         1 UNK         0.2981 
    131 H131       33.9294    1.9944   -5.1139 H         1 UNK         0.0541 
    132 H132       30.6089    0.9896   -5.5597 H         1 UNK         0.3459 
    133 H133       29.9311    2.1947   -4.4831 H         1 UNK         0.3459 
    134 H134       34.2411    0.6680   -3.2162 H         1 UNK         0.0612 
    135 H135       34.6058   -0.3717   -4.5531 H         1 UNK         0.0612 
    136 H136       34.0204   -3.0011   -3.5215 H         1 UNK         0.0624 
    137 H137       33.5243   -2.4433   -5.1052 H         1 UNK         0.0624 
@<TRIPOS>BOND
     1    1    2 1    
     2    1   72 1    
     3    1   73 1    
     4    1   74 1    
     5    2    3 2    
     6    2    4 am   BACKBONE|DICT|INTERRES
     7    4    5 1    
     8    4   75 1    
     9    5    6 1    
    10    5   35 1    
    11    5   76 1    
    12    6    7 1    
    13    6   77 1    
    14    6   78 1    
    15    7    8 1    
    16    8    9 1    
    17    8   79 1    
    18    8   80 1    
    19    9   10 ar   
    20    9   14 ar   
    21   10   11 ar   
    22   10   81 1    
    23   11   12 ar   
    24   11   71 1    
    25   12   13 ar   
    26   12   82 1    
    27   13   14 ar   
    28   13   15 1    
    29   14   83 1    
    30   15   16 1    
    31   15   84 1    
    32   15   85 1    
    33   16   17 1    
    34   17   18 1    
    35   17   86 1    
    36   17   87 1    
    37   18   19 1    
    38   18   37 1    
    39   18   88 1    
    40   19   20 am   BACKBONE|DICT|INTERRES
    41   19   89 1    
    42   20   21 2    
    43   20   22 1    
    44   22   23 1    
    45   22   24 1    
    46   22   90 1    
    47   23   91 1    
    48   23   92 1    
    49   23   93 1    
    50   24   25 am   BACKBONE|DICT|INTERRES
    51   24   94 1    
    52   25   26 2    
    53   25   27 1    
    54   27   28 1    
    55   27   29 1    
    56   27   95 1    
    57   28   96 1    
    58   28   97 1    
    59   28   98 1    
    60   29   30 am   BACKBONE|DICT|INTERRES
    61   29   99 1    
    62   30   31 2    
    63   30   32 1    
    64   32   33 1    
    65   32   34 1    
    66   32  100 1    
    67   33  101 1    
    68   33  102 1    
    69   33  103 1    
    70   34   35 am   BACKBONE|DICT|INTERRES
    71   34  104 1    
    72   35   36 2    
    73   37   38 2    
    74   37   39 am   BACKBONE|DICT|INTERRES
    75   39   40 1    
    76   39  105 1    
    77   40   41 1    
    78   40   42 1    
    79   40  106 1    
    80   41  107 1    
    81   41  108 1    
    82   41  109 1    
    83   42   43 2    
    84   42   44 am   BACKBONE|DICT|INTERRES
    85   44   45 1    
    86   44  110 1    
    87   45   46 1    
    88   45   47 1    
    89   45  111 1    
    90   46  112 1    
    91   46  113 1    
    92   46  114 1    
    93   47   48 2    
    94   47   49 am   BACKBONE|DICT|INTERRES
    95   49   50 1    
    96   49  115 1    
    97   50   51 1    
    98   50   52 1    
    99   50  116 1    
   100   51  117 1    
   101   51  118 1    
   102   51  119 1    
   103   52   53 2    
   104   52   54 am   BACKBONE|DICT|INTERRES
   105   54   55 1    
   106   54  120 1    
   107   55   56 1    
   108   55   57 1    
   109   55  121 1    
   110   56  122 1    
   111   56  123 1    
   112   56  124 1    
   113   57   58 2    
   114   57   59 am   BACKBONE|DICT|INTERRES
   115   59   60 1    
   116   59  125 1    
   117   60   61 1    
   118   60   62 1    
   119   60  126 1    
   120   61  127 1    
   121   61  128 1    
   122   61  129 1    
   123   62   63 2    
   124   62   64 am   BACKBONE|DICT|INTERRES
   125   64   65 1    
   126   64  130 1    
   127   65   66 1    
   128   65   69 1    
   129   65  131 1    
   130   66   67 am   BACKBONE|DICT|INTERRES
   131   66   68 2    
   132   67  132 1    
   133   67  133 1    
   134   69   70 1    
   135   69  134 1    
   136   69  135 1    
   137   70   71 1    
   138   71  136 1    
   139   71  137 1    
@<TRIPOS>SUBSTRUCTURE
     1 UNK         1 GROUP             0       ****    0 ROOT    
