@<TRIPOS>MOLECULE
3R137
137   139    1
SMALL
USER_CHARGES


@<TRIPOS>ATOM
      1 CA         28.4885   -2.9537    3.6591 C.3       0 UNK        -0.2020 
      2 C          28.6908   -2.0039    2.4879 C.2       0 UNK         0.4855 
      3 O          28.7678   -0.7911    2.6887 O.2       0 UNK        -0.5197 
      4 N          28.7879   -2.5455    1.2683 N.am      1 UNK        -0.4892 
      5 CA         28.8987   -1.7876    0.0182 C.3       1 UNK         0.0835 
      6 C6         29.4808   -2.6494   -1.1318 C.3       12 UNK        -0.0855 
      7 S7         28.6567   -4.2647   -1.3668 S.3       12 UNK        -0.2931 
      8 C8         29.9915   -5.2212   -2.1525 C.3       12 UNK         0.0378 
      9 C9         30.2701   -4.7233   -3.5624 C.ar      12 UNK        -0.0802 
     10 C10        31.3154   -3.8256   -3.8053 C.ar      12 UNK        -0.0944 
     11 C11        31.5618   -3.3606   -5.0998 C.ar      12 UNK        -0.0787 
     12 C12        30.7490   -3.7973   -6.1487 C.ar      12 UNK        -0.0862 
     13 C13        29.6990   -4.6921   -5.9245 C.ar      12 UNK        -0.0733 
     14 C14        29.4750   -5.1624   -4.6255 C.ar      12 UNK        -0.0832 
     15 C15        28.8558   -5.1557   -7.1119 C.3       12 UNK         0.0240 
     16 S16        27.0934   -5.4730   -6.7472 S.3       12 UNK        -0.2522 
     17 C17        26.5119   -3.8816   -6.0726 C.3       12 UNK        -0.0967 
     18 CA         26.3150   -2.7862   -7.1592 C.3       5 UNK         0.0660 
     19 N          25.0392   -2.0814   -7.0081 N.am      5 UNK        -0.4015 
     20 C          24.5530   -1.1532   -7.8463 C.2       4 UNK         0.4946 
     21 O          25.1210   -0.7854   -8.8730 O.2       4 UNK        -0.5353 
     22 CA         23.2135   -0.5000   -7.4643 C.3       4 UNK         0.0277 
     23 CB         22.0459   -1.2341   -8.1423 C.3       4 UNK        -0.1981 
     24 N          22.9844   -0.4452   -6.0179 N.am      4 UNK        -0.4209 
     25 C          23.7408    0.2420   -5.1507 C.2       3 UNK         0.4942 
     26 O          24.6901    0.9524   -5.4951 O.2       3 UNK        -0.5208 
     27 CA         23.3556    0.1113   -3.6620 C.3       3 UNK         0.0250 
     28 CB         22.9109   -1.3189   -3.2757 C.3       3 UNK        -0.1990 
     29 N          24.4081    0.5768   -2.7519 N.am      3 UNK        -0.4232 
     30 C          25.6517    0.0906   -2.6202 C.2       2 UNK         0.4993 
     31 O          26.0998   -0.8523   -3.2813 O.2       2 UNK        -0.5286 
     32 CA         26.5596    0.8265   -1.6094 C.3       2 UNK         0.0209 
     33 CB         25.7886    1.4722   -0.4329 C.3       2 UNK        -0.1931 
     34 N          27.6588   -0.0082   -1.1074 N.am      2 UNK        -0.4546 
     35 C          27.5585   -1.1245   -0.3698 C.2       1 UNK         0.5154 
     36 O          26.4899   -1.6186    0.0041 O.2       1 UNK        -0.5181 
     37 C          27.5003   -1.8033   -7.1899 C.2       5 UNK         0.5014 
     38 O          28.2568   -1.7882   -8.1639 O.2       5 UNK        -0.5248 
     39 N          27.6149   -0.9723   -6.1420 N.am      6 UNK        -0.4434 
     40 CA         28.6833    0.0189   -6.0274 C.3       6 UNK         0.0363 
     41 CB         28.7630    0.5552   -4.5937 C.3       6 UNK        -0.1936 
     42 C          28.5470    1.1729   -7.0266 C.2       6 UNK         0.5081 
     43 O          29.5689    1.7117   -7.4494 O.2       6 UNK        -0.5248 
     44 N          27.3076    1.5170   -7.4048 N.am      7 UNK        -0.4718 
     45 CA         27.0142    2.5045   -8.4444 C.3       7 UNK         0.0273 
     46 CB         25.5165    2.8469   -8.4324 C.3       7 UNK        -0.1935 
     47 C          27.4610    2.0318   -9.8381 C.2       7 UNK         0.5018 
     48 O          28.0813    2.8089  -10.5639 O.2       7 UNK        -0.5186 
     49 N          27.1654    0.7672  -10.1752 N.am      8 UNK        -0.4240 
     50 CA         27.5656    0.1272  -11.4305 C.3       8 UNK         0.0235 
     51 CB         26.8133   -1.2025  -11.6009 C.3       8 UNK        -0.2000 
     52 C          29.0827   -0.0936  -11.5278 C.2       8 UNK         0.4941 
     53 O          29.6644    0.1799  -12.5785 O.2       8 UNK        -0.5273 
     54 N          29.6973   -0.5733  -10.4371 N.am      9 UNK        -0.4262 
     55 CA         31.1426   -0.8055  -10.3485 C.3       9 UNK         0.0264 
     56 CB         31.4257   -1.7453   -9.1701 C.3       9 UNK        -0.1955 
     57 C          31.9727    0.4823  -10.2083 C.2       9 UNK         0.5031 
     58 O          33.1671    0.4550  -10.5076 O.2       9 UNK        -0.5390 
     59 N          31.3395    1.5646   -9.7333 N.am      10 UNK        -0.4204 
     60 CA         31.9167    2.8712   -9.4001 C.3       10 UNK         0.0237 
     61 CB         32.5021    3.5642  -10.6496 C.3       10 UNK        -0.1985 
     62 C          32.9038    2.8171   -8.2153 C.2       10 UNK         0.4970 
     63 O          33.7943    3.6651   -8.1304 O.2       10 UNK        -0.4914 
     64 N          32.7230    1.8412   -7.3135 N.am      11 UNK        -0.4285 
     65 CA         33.4949    1.7030   -6.0681 C.3       11 UNK         0.1007 
     66 C          32.9588    2.5736   -4.8936 C.2       11 UNK         0.5703 
     67 N          31.7858    3.1888   -5.0043 N.am      11 UNK        -0.7361 
     68 O          33.6298    2.7090   -3.8731 O.2       11 UNK        -0.4986 
     69 C69        33.7055    0.2159   -5.6702 C.3       12 UNK        -0.0947 
     70 S70        32.1726   -0.6715   -5.2388 S.3       12 UNK        -0.2240 
     71 C71        32.7120   -2.4008   -5.3723 C.3       12 UNK         0.0194 
     72 H72        28.4548   -3.9950    3.3388 H         1 UNK         0.0906 
     73 H73        29.3026   -2.8457    4.3754 H         1 UNK         0.0906 
     74 H74        27.5529   -2.7257    4.1692 H         1 UNK         0.0906 
     75 H75        28.6763   -3.5428    1.1476 H         1 UNK         0.3140 
     76 H76        29.6072   -0.9757    0.2006 H         1 UNK         0.1085 
     77 H77        29.4627   -2.1068   -2.0794 H         1 UNK         0.0836 
     78 H78        30.5357   -2.8329   -0.9226 H         1 UNK         0.0836 
     79 H79        30.8927   -5.1748   -1.5389 H         1 UNK         0.0731 
     80 H80        29.7010   -6.2723   -2.1849 H         1 UNK         0.0731 
     81 H81        31.9365   -3.4863   -2.9877 H         1 UNK         0.1312 
     82 H82        30.9404   -3.4442   -7.1489 H         1 UNK         0.1406 
     83 H83        28.6735   -5.8626   -4.4342 H         1 UNK         0.1631 
     84 H84        29.2941   -6.0750   -7.5018 H         1 UNK         0.0717 
     85 H85        28.9103   -4.4281   -7.9228 H         1 UNK         0.0717 
     86 H86        27.1674   -3.5623   -5.2592 H         1 UNK         0.0934 
     87 H87        25.5623   -4.1041   -5.5836 H         1 UNK         0.0934 
     88 H88        26.2721   -3.2629   -8.1411 H         1 UNK         0.0739 
     89 H89        24.4986   -2.3007   -6.1855 H         1 UNK         0.3093 
     90 H90        23.2307    0.5264   -7.8353 H         1 UNK         0.0818 
     91 H91        21.0970   -0.7314   -7.9543 H         1 UNK         0.0819 
     92 H92        22.1832   -1.2668   -9.2243 H         1 UNK         0.0819 
     93 H93        21.9567   -2.2642   -7.7947 H         1 UNK         0.0819 
     94 H94        22.2072   -0.9824   -5.6607 H         1 UNK         0.3041 
     95 H95        22.5071    0.7797   -3.5079 H         1 UNK         0.0784 
     96 H96        21.9873   -1.6064   -3.7786 H         1 UNK         0.0793 
     97 H97        23.6695   -2.0619   -3.5250 H         1 UNK         0.0793 
     98 H98        22.7189   -1.3937   -2.2051 H         1 UNK         0.0793 
     99 H99        24.1638    1.3813   -2.1924 H         1 UNK         0.3024 
    100 H100       27.0301    1.6365   -2.1683 H         1 UNK         0.1171 
    101 H101       26.4739    1.9046    0.2965 H         1 UNK         0.0786 
    102 H102       25.1643    0.7474    0.0914 H         1 UNK         0.0786 
    103 H103       25.1424    2.2827   -0.7713 H         1 UNK         0.0786 
    104 H104       28.5823    0.2940   -1.3833 H         1 UNK         0.2977 
    105 H105       26.9499   -1.0199   -5.3774 H         1 UNK         0.3127 
    106 H106       29.6157   -0.4947   -6.2568 H         1 UNK         0.0770 
    107 H107       27.8760    1.1350   -4.3413 H         1 UNK         0.0814 
    108 H108       29.6273    1.2090   -4.4712 H         1 UNK         0.0814 
    109 H109       28.8642   -0.2561   -3.8730 H         1 UNK         0.0814 
    110 H110       26.5194    1.0477   -6.9758 H         1 UNK         0.2983 
    111 H111       27.5720    3.4133   -8.2073 H         1 UNK         0.0947 
    112 H112       25.2938    3.6398   -9.1475 H         1 UNK         0.0806 
    113 H113       25.1953    3.1945   -7.4501 H         1 UNK         0.0806 
    114 H114       24.9032    1.9871   -8.7003 H         1 UNK         0.0806 
    115 H115       26.6033    0.2044   -9.5397 H         1 UNK         0.3000 
    116 H116       27.2743    0.7883  -12.2497 H         1 UNK         0.0850 
    117 H117       27.0958   -1.6970  -12.5313 H         1 UNK         0.0810 
    118 H118       25.7351   -1.0450  -11.6314 H         1 UNK         0.0810 
    119 H119       27.0250   -1.8936  -10.7837 H         1 UNK         0.0810 
    120 H120       29.1365   -0.8370   -9.6293 H         1 UNK         0.3040 
    121 H121       31.4673   -1.3039  -11.2646 H         1 UNK         0.0766 
    122 H122       32.4925   -1.9541   -9.0773 H         1 UNK         0.0812 
    123 H123       31.0918   -1.3139   -8.2256 H         1 UNK         0.0812 
    124 H124       30.9173   -2.6994   -9.3080 H         1 UNK         0.0812 
    125 H125       30.3714    1.4541   -9.4548 H         1 UNK         0.3205 
    126 H126       31.0791    3.4801   -9.0564 H         1 UNK         0.0754 
    127 H127       32.7740    4.5978  -10.4324 H         1 UNK         0.0769 
    128 H128       31.7787    3.5857  -11.4647 H         1 UNK         0.0769 
    129 H129       33.4004    3.0622  -11.0100 H         1 UNK         0.0769 
    130 H130       31.9269    1.2277   -7.4163 H         1 UNK         0.2981 
    131 H131       34.4952    2.0938   -6.2641 H         1 UNK         0.0541 
    132 H132       31.2235    3.0696   -5.8326 H         1 UNK         0.3459 
    133 H133       31.4548    3.7597   -4.2434 H         1 UNK         0.3459 
    134 H134       34.3917    0.1428   -4.8246 H         1 UNK         0.0612 
    135 H135       34.1913   -0.3104   -6.4933 H         1 UNK         0.0612 
    136 H136       33.1171   -2.5774   -6.3699 H         1 UNK         0.0624 
    137 H137       33.5271   -2.5793   -4.6694 H         1 UNK         0.0624 
@<TRIPOS>BOND
     1    1    2 1    
     2    1   72 1    
     3    1   73 1    
     4    1   74 1    
     5    2    3 2    
     6    2    4 am   BACKBONE|DICT|INTERRES
     7    4    5 1    
     8    4   75 1    
     9    5    6 1    
    10    5   35 1    
    11    5   76 1    
    12    6    7 1    
    13    6   77 1    
    14    6   78 1    
    15    7    8 1    
    16    8    9 1    
    17    8   79 1    
    18    8   80 1    
    19    9   10 ar   
    20    9   14 ar   
    21   10   11 ar   
    22   10   81 1    
    23   11   12 ar   
    24   11   71 1    
    25   12   13 ar   
    26   12   82 1    
    27   13   14 ar   
    28   13   15 1    
    29   14   83 1    
    30   15   16 1    
    31   15   84 1    
    32   15   85 1    
    33   16   17 1    
    34   17   18 1    
    35   17   86 1    
    36   17   87 1    
    37   18   19 1    
    38   18   37 1    
    39   18   88 1    
    40   19   20 am   BACKBONE|DICT|INTERRES
    41   19   89 1    
    42   20   21 2    
    43   20   22 1    
    44   22   23 1    
    45   22   24 1    
    46   22   90 1    
    47   23   91 1    
    48   23   92 1    
    49   23   93 1    
    50   24   25 am   BACKBONE|DICT|INTERRES
    51   24   94 1    
    52   25   26 2    
    53   25   27 1    
    54   27   28 1    
    55   27   29 1    
    56   27   95 1    
    57   28   96 1    
    58   28   97 1    
    59   28   98 1    
    60   29   30 am   BACKBONE|DICT|INTERRES
    61   29   99 1    
    62   30   31 2    
    63   30   32 1    
    64   32   33 1    
    65   32   34 1    
    66   32  100 1    
    67   33  101 1    
    68   33  102 1    
    69   33  103 1    
    70   34   35 am   BACKBONE|DICT|INTERRES
    71   34  104 1    
    72   35   36 2    
    73   37   38 2    
    74   37   39 am   BACKBONE|DICT|INTERRES
    75   39   40 1    
    76   39  105 1    
    77   40   41 1    
    78   40   42 1    
    79   40  106 1    
    80   41  107 1    
    81   41  108 1    
    82   41  109 1    
    83   42   43 2    
    84   42   44 am   BACKBONE|DICT|INTERRES
    85   44   45 1    
    86   44  110 1    
    87   45   46 1    
    88   45   47 1    
    89   45  111 1    
    90   46  112 1    
    91   46  113 1    
    92   46  114 1    
    93   47   48 2    
    94   47   49 am   BACKBONE|DICT|INTERRES
    95   49   50 1    
    96   49  115 1    
    97   50   51 1    
    98   50   52 1    
    99   50  116 1    
   100   51  117 1    
   101   51  118 1    
   102   51  119 1    
   103   52   53 2    
   104   52   54 am   BACKBONE|DICT|INTERRES
   105   54   55 1    
   106   54  120 1    
   107   55   56 1    
   108   55   57 1    
   109   55  121 1    
   110   56  122 1    
   111   56  123 1    
   112   56  124 1    
   113   57   58 2    
   114   57   59 am   BACKBONE|DICT|INTERRES
   115   59   60 1    
   116   59  125 1    
   117   60   61 1    
   118   60   62 1    
   119   60  126 1    
   120   61  127 1    
   121   61  128 1    
   122   61  129 1    
   123   62   63 2    
   124   62   64 am   BACKBONE|DICT|INTERRES
   125   64   65 1    
   126   64  130 1    
   127   65   66 1    
   128   65   69 1    
   129   65  131 1    
   130   66   67 am   BACKBONE|DICT|INTERRES
   131   66   68 2    
   132   67  132 1    
   133   67  133 1    
   134   69   70 1    
   135   69  134 1    
   136   69  135 1    
   137   70   71 1    
   138   71  136 1    
   139   71  137 1    
@<TRIPOS>SUBSTRUCTURE
     1 UNK         1 GROUP             0       ****    0 ROOT    
