@<TRIPOS>MOLECULE
3R137
137   139    1
SMALL
USER_CHARGES


@<TRIPOS>ATOM
      1 CA         27.2318   -6.0147   -1.0093 C.3       0 UNK        -0.2020 
      2 C          27.0059   -4.5321   -0.7542 C.2       0 UNK         0.4855 
      3 O          26.6530   -3.8082   -1.6824 O.2       0 UNK        -0.5197 
      4 N          27.2119   -4.0863    0.4936 N.am      1 UNK        -0.4892 
      5 CA         27.0358   -2.7150    0.9958 C.3       1 UNK         0.0835 
      6 C6         28.2893   -1.8030    0.7938 C.3       12 UNK        -0.0855 
      7 S7         28.7019   -1.3140   -0.9208 S.3       12 UNK        -0.2931 
      8 C8         30.0582   -2.4549   -1.3200 C.3       12 UNK         0.0378 
      9 C9         30.2729   -2.5375   -2.8238 C.ar      12 UNK        -0.0802 
     10 C10        31.1519   -1.6615   -3.4671 C.ar      12 UNK        -0.0944 
     11 C11        31.3545   -1.7490   -4.8486 C.ar      12 UNK        -0.0787 
     12 C12        30.6774   -2.7252   -5.5862 C.ar      12 UNK        -0.0862 
     13 C13        29.7992   -3.6082   -4.9519 C.ar      12 UNK        -0.0733 
     14 C14        29.5952   -3.5026   -3.5736 C.ar      12 UNK        -0.0832 
     15 C15        29.0891   -4.6989   -5.7376 C.3       12 UNK         0.0240 
     16 S16        27.4339   -4.1771   -6.2797 S.3       12 UNK        -0.2522 
     17 C17        27.7911   -3.3562   -7.8720 C.3       12 UNK        -0.0967 
     18 CA         27.2394   -1.9146   -7.9816 C.3       5 UNK         0.0660 
     19 N          25.8272   -1.8215   -7.6018 N.am      5 UNK        -0.4015 
     20 C          25.0481   -0.7446   -7.7665 C.2       4 UNK         0.4946 
     21 O          25.4250    0.2867   -8.3250 O.2       4 UNK        -0.5353 
     22 CA         23.6335   -0.7989   -7.1613 C.3       4 UNK         0.0277 
     23 CB         22.6198   -1.2495   -8.2247 C.3       4 UNK        -0.1981 
     24 N          23.4948   -1.6411   -5.9625 N.am      4 UNK        -0.4209 
     25 C          24.2223   -1.5245   -4.8415 C.2       3 UNK         0.4942 
     26 O          25.1792   -0.7554   -4.7275 O.2       3 UNK        -0.5208 
     27 CA         23.8389   -2.4479   -3.6719 C.3       3 UNK         0.0250 
     28 CB         24.4053   -3.8587   -3.8938 C.3       3 UNK        -0.1990 
     29 N          24.3393   -1.9085   -2.4021 N.am      3 UNK        -0.4232 
     30 C          23.7785   -0.8635   -1.7728 C.2       2 UNK         0.4993 
     31 O          22.6901   -0.3887   -2.1060 O.2       2 UNK        -0.5286 
     32 CA         24.5539   -0.1914   -0.6200 C.3       2 UNK         0.0209 
     33 CB         23.6277    0.2848    0.5208 C.3       2 UNK        -0.1931 
     34 N          25.6877   -0.9647   -0.1011 N.am      2 UNK        -0.4546 
     35 C          25.6671   -2.1050    0.6004 C.2       1 UNK         0.5154 
     36 O          24.6337   -2.6837    0.9440 O.2       1 UNK        -0.5181 
     37 C          28.1441   -0.8761   -7.2838 C.2       5 UNK         0.5014 
     38 O          29.1405   -0.4699   -7.8842 O.2       5 UNK        -0.5248 
     39 N          27.7593   -0.3877   -6.0946 N.am      6 UNK        -0.4434 
     40 CA         28.4452    0.7064   -5.3998 C.3       6 UNK         0.0363 
     41 CB         27.8601    0.8634   -3.9890 C.3       6 UNK        -0.1936 
     42 C          28.3960    2.0462   -6.1608 C.2       6 UNK         0.5081 
     43 O          29.2423    2.9033   -5.9089 O.2       6 UNK        -0.5248 
     44 N          27.4330    2.1981   -7.0811 N.am      7 UNK        -0.4718 
     45 CA         27.3393    3.3172   -8.0159 C.3       7 UNK         0.0273 
     46 CB         25.9029    3.8663   -8.0098 C.3       7 UNK        -0.1935 
     47 C          27.7471    2.8878   -9.4339 C.2       7 UNK         0.5018 
     48 O          28.4937    3.6170  -10.0861 O.2       7 UNK        -0.5186 
     49 N          27.2385    1.7354   -9.8978 N.am      8 UNK        -0.4240 
     50 CA         27.4003    1.2582  -11.2744 C.3       8 UNK         0.0235 
     51 CB         26.3486    0.1792  -11.5808 C.3       8 UNK        -0.2000 
     52 C          28.8158    0.7569  -11.6045 C.2       8 UNK         0.4941 
     53 O          29.3207    1.0754  -12.6820 O.2       8 UNK        -0.5273 
     54 N          29.4301   -0.0108  -10.6929 N.am      9 UNK        -0.4262 
     55 CA         30.8170   -0.4731  -10.8167 C.3       9 UNK         0.0264 
     56 CB         30.9714   -1.8766  -10.2045 C.3       9 UNK        -0.1955 
     57 C          31.7850    0.5198  -10.1575 C.2       9 UNK         0.5031 
     58 O          32.9117    0.6626  -10.6328 O.2       9 UNK        -0.5390 
     59 N          31.3324    1.1846   -9.0828 N.am      10 UNK        -0.4204 
     60 CA         31.9621    2.2904   -8.3428 C.3       10 UNK         0.0237 
     61 CB         32.2057    3.5052   -9.2595 C.3       10 UNK        -0.1985 
     62 C          33.2356    1.9353   -7.5520 C.2       10 UNK         0.4970 
     63 O          33.4842    2.5706   -6.5266 O.2       10 UNK        -0.4914 
     64 N          33.9928    0.9304   -8.0083 N.am      11 UNK        -0.4285 
     65 CA         35.2430    0.4295   -7.4154 C.3       11 UNK         0.1007 
     66 C          36.4071    1.4677   -7.4835 C.2       11 UNK         0.5703 
     67 N          37.4973    1.2549   -6.7573 N.am      11 UNK        -0.7361 
     68 O          36.3626    2.4438   -8.2314 O.2       11 UNK        -0.4986 
     69 C69        35.0322   -0.1871   -5.9983 C.3       12 UNK        -0.0947 
     70 S70        33.8690   -1.5938   -5.9794 S.3       12 UNK        -0.2240 
     71 C71        32.2979   -0.7835   -5.5457 C.3       12 UNK         0.0194 
     72 H72        28.0222   -6.1530   -1.7462 H         1 UNK         0.0906 
     73 H73        27.5157   -6.5481   -0.1025 H         1 UNK         0.0906 
     74 H74        26.3211   -6.4686   -1.3989 H         1 UNK         0.0906 
     75 H75        27.4729   -4.7584    1.2017 H         1 UNK         0.3140 
     76 H76        26.9476   -2.8413    2.0764 H         1 UNK         0.1085 
     77 H77        28.1651   -0.8857    1.3724 H         1 UNK         0.0836 
     78 H78        29.1603   -2.2902    1.2347 H         1 UNK         0.0836 
     79 H79        29.8347   -3.4465   -0.9242 H         1 UNK         0.0731 
     80 H80        30.9703   -2.1225   -0.8221 H         1 UNK         0.0731 
     81 H81        31.6744   -0.9099   -2.8913 H         1 UNK         0.1312 
     82 H82        30.8403   -2.7963   -6.6526 H         1 UNK         0.1406 
     83 H83        28.9066   -4.1760   -3.0832 H         1 UNK         0.1631 
     84 H84        28.9808   -5.5848   -5.1099 H         1 UNK         0.0717 
     85 H85        29.6877   -5.0136   -6.5937 H         1 UNK         0.0717 
     86 H86        28.8618   -3.3763   -8.0832 H         1 UNK         0.0934 
     87 H87        27.3383   -3.9690   -8.6531 H         1 UNK         0.0934 
     88 H88        27.2790   -1.6563   -9.0401 H         1 UNK         0.0739 
     89 H89        25.4536   -2.6165   -7.1038 H         1 UNK         0.3093 
     90 H90        23.3822    0.2211   -6.8631 H         1 UNK         0.0818 
     91 H91        21.5963   -1.1713   -7.8578 H         1 UNK         0.0819 
     92 H92        22.6882   -0.6267   -9.1182 H         1 UNK         0.0819 
     93 H93        22.7895   -2.2817   -8.5337 H         1 UNK         0.0819 
     94 H94        22.7400   -2.3125   -5.9752 H         1 UNK         0.3041 
     95 H95        22.7501   -2.5154   -3.6204 H         1 UNK         0.0784 
     96 H96        23.9837   -4.3196   -4.7877 H         1 UNK         0.0793 
     97 H97        25.4881   -3.8392   -4.0194 H         1 UNK         0.0793 
     98 H98        24.1794   -4.5146   -3.0529 H         1 UNK         0.0793 
     99 H99        25.2375   -2.2602   -2.0858 H         1 UNK         0.3024 
    100 H100       24.9960    0.7011   -1.0659 H         1 UNK         0.1171 
    101 H101       24.1929    0.7742    1.3139 H         1 UNK         0.0786 
    102 H102       22.8963    1.0069    0.1559 H         1 UNK         0.0786 
    103 H103       23.0704   -0.5408    0.9639 H         1 UNK         0.0786 
    104 H104       26.6048   -0.6349   -0.3817 H         1 UNK         0.2977 
    105 H105       26.9001   -0.7232   -5.6656 H         1 UNK         0.3127 
    106 H106       29.4951    0.4256   -5.3022 H         1 UNK         0.0770 
    107 H107       26.8336    1.2304   -4.0159 H         1 UNK         0.0814 
    108 H108       27.8614   -0.0870   -3.4561 H         1 UNK         0.0814 
    109 H109       28.4459    1.5698   -3.3998 H         1 UNK         0.0814 
    110 H110       26.7787    1.4373   -7.2252 H         1 UNK         0.2983 
    111 H111       28.0088    4.1251   -7.7118 H         1 UNK         0.0947 
    112 H112       25.6267    4.2349   -7.0218 H         1 UNK         0.0806 
    113 H113       25.1744    3.1073   -8.2980 H         1 UNK         0.0806 
    114 H114       25.8006    4.6993   -8.7066 H         1 UNK         0.0806 
    115 H115       26.5922    1.2121   -9.3085 H         1 UNK         0.3000 
    116 H116       27.1991    2.1040  -11.9360 H         1 UNK         0.0850 
    117 H117       26.4152   -0.1447  -12.6203 H         1 UNK         0.0810 
    118 H118       25.3377    0.5563  -11.4240 H         1 UNK         0.0810 
    119 H119       26.4735   -0.7047  -10.9574 H         1 UNK         0.0810 
    120 H120       28.9786   -0.1885   -9.8024 H         1 UNK         0.3040 
    121 H121       31.0837   -0.5461  -11.8733 H         1 UNK         0.0766 
    122 H122       30.8572   -1.8730   -9.1212 H         1 UNK         0.0812 
    123 H123       31.9626   -2.2793  -10.4169 H         1 UNK         0.0812 
    124 H124       30.2434   -2.5742  -10.6185 H         1 UNK         0.0812 
    125 H125       30.4398    0.8768   -8.7099 H         1 UNK         0.3205 
    126 H126       31.2235    2.5919   -7.6003 H         1 UNK         0.0754 
    127 H127       32.5618    4.3608   -8.6843 H         1 UNK         0.0769 
    128 H128       31.2884    3.8120   -9.7621 H         1 UNK         0.0769 
    129 H129       32.9546    3.2956  -10.0239 H         1 UNK         0.0769 
    130 H130       33.7475    0.5514   -8.9175 H         1 UNK         0.2981 
    131 H131       35.5609   -0.3762   -8.0776 H         1 UNK         0.0541 
    132 H132       38.2585    1.9132   -6.8157 H         1 UNK         0.3459 
    133 H133       37.5755    0.4508   -6.1550 H         1 UNK         0.3459 
    134 H134       34.7166    0.5707   -5.2805 H         1 UNK         0.0612 
    135 H135       35.9725   -0.5818   -5.6120 H         1 UNK         0.0612 
    136 H136       31.8234   -0.4087   -6.4534 H         1 UNK         0.0624 
    137 H137       32.4835    0.0841   -4.9111 H         1 UNK         0.0624 
@<TRIPOS>BOND
     1    1    2 1    
     2    1   72 1    
     3    1   73 1    
     4    1   74 1    
     5    2    3 2    
     6    2    4 am   BACKBONE|DICT|INTERRES
     7    4    5 1    
     8    4   75 1    
     9    5    6 1    
    10    5   35 1    
    11    5   76 1    
    12    6    7 1    
    13    6   77 1    
    14    6   78 1    
    15    7    8 1    
    16    8    9 1    
    17    8   79 1    
    18    8   80 1    
    19    9   10 ar   
    20    9   14 ar   
    21   10   11 ar   
    22   10   81 1    
    23   11   12 ar   
    24   11   71 1    
    25   12   13 ar   
    26   12   82 1    
    27   13   14 ar   
    28   13   15 1    
    29   14   83 1    
    30   15   16 1    
    31   15   84 1    
    32   15   85 1    
    33   16   17 1    
    34   17   18 1    
    35   17   86 1    
    36   17   87 1    
    37   18   19 1    
    38   18   37 1    
    39   18   88 1    
    40   19   20 am   BACKBONE|DICT|INTERRES
    41   19   89 1    
    42   20   21 2    
    43   20   22 1    
    44   22   23 1    
    45   22   24 1    
    46   22   90 1    
    47   23   91 1    
    48   23   92 1    
    49   23   93 1    
    50   24   25 am   BACKBONE|DICT|INTERRES
    51   24   94 1    
    52   25   26 2    
    53   25   27 1    
    54   27   28 1    
    55   27   29 1    
    56   27   95 1    
    57   28   96 1    
    58   28   97 1    
    59   28   98 1    
    60   29   30 am   BACKBONE|DICT|INTERRES
    61   29   99 1    
    62   30   31 2    
    63   30   32 1    
    64   32   33 1    
    65   32   34 1    
    66   32  100 1    
    67   33  101 1    
    68   33  102 1    
    69   33  103 1    
    70   34   35 am   BACKBONE|DICT|INTERRES
    71   34  104 1    
    72   35   36 2    
    73   37   38 2    
    74   37   39 am   BACKBONE|DICT|INTERRES
    75   39   40 1    
    76   39  105 1    
    77   40   41 1    
    78   40   42 1    
    79   40  106 1    
    80   41  107 1    
    81   41  108 1    
    82   41  109 1    
    83   42   43 2    
    84   42   44 am   BACKBONE|DICT|INTERRES
    85   44   45 1    
    86   44  110 1    
    87   45   46 1    
    88   45   47 1    
    89   45  111 1    
    90   46  112 1    
    91   46  113 1    
    92   46  114 1    
    93   47   48 2    
    94   47   49 am   BACKBONE|DICT|INTERRES
    95   49   50 1    
    96   49  115 1    
    97   50   51 1    
    98   50   52 1    
    99   50  116 1    
   100   51  117 1    
   101   51  118 1    
   102   51  119 1    
   103   52   53 2    
   104   52   54 am   BACKBONE|DICT|INTERRES
   105   54   55 1    
   106   54  120 1    
   107   55   56 1    
   108   55   57 1    
   109   55  121 1    
   110   56  122 1    
   111   56  123 1    
   112   56  124 1    
   113   57   58 2    
   114   57   59 am   BACKBONE|DICT|INTERRES
   115   59   60 1    
   116   59  125 1    
   117   60   61 1    
   118   60   62 1    
   119   60  126 1    
   120   61  127 1    
   121   61  128 1    
   122   61  129 1    
   123   62   63 2    
   124   62   64 am   BACKBONE|DICT|INTERRES
   125   64   65 1    
   126   64  130 1    
   127   65   66 1    
   128   65   69 1    
   129   65  131 1    
   130   66   67 am   BACKBONE|DICT|INTERRES
   131   66   68 2    
   132   67  132 1    
   133   67  133 1    
   134   69   70 1    
   135   69  134 1    
   136   69  135 1    
   137   70   71 1    
   138   71  136 1    
   139   71  137 1    
@<TRIPOS>SUBSTRUCTURE
     1 UNK         1 GROUP             0       ****    0 ROOT    
