@<TRIPOS>MOLECULE
3R137
137   139    1
SMALL
USER_CHARGES


@<TRIPOS>ATOM
      1 CA         28.8302   -1.2946    3.6508 C.3       0 UNK        -0.2020 
      2 C          28.8324   -1.1428    2.1370 C.2       0 UNK         0.4855 
      3 O          29.4413   -0.2076    1.6175 O.2       0 UNK        -0.5197 
      4 N          28.1591   -2.0576    1.4260 N.am      1 UNK        -0.4892 
      5 CA         28.0280   -2.0527   -0.0368 C.3       1 UNK         0.0835 
      6 C6         27.5161   -3.4261   -0.5454 C.3       12 UNK        -0.0855 
      7 S7         27.7096   -3.6390   -2.3454 S.3       12 UNK        -0.2931 
      8 C8         29.3066   -4.5041   -2.4459 C.3       12 UNK         0.0378 
      9 C9         29.9748   -4.1946   -3.7741 C.ar      12 UNK        -0.0802 
     10 C10        31.0146   -3.2629   -3.8367 C.ar      12 UNK        -0.0944 
     11 C11        31.5929   -2.9183   -5.0611 C.ar      12 UNK        -0.0787 
     12 C12        31.1052   -3.5211   -6.2294 C.ar      12 UNK        -0.0862 
     13 C13        30.0453   -4.4333   -6.1892 C.ar      12 UNK        -0.0733 
     14 C14        29.5162   -4.7997   -4.9471 C.ar      12 UNK        -0.0832 
     15 C15        29.5083   -4.9855   -7.5118 C.3       12 UNK         0.0240 
     16 S16        27.7566   -5.5292   -7.5385 S.3       12 UNK        -0.2522 
     17 C17        26.7907   -4.1746   -6.7780 C.3       12 UNK        -0.0967 
     18 CA         26.5681   -2.9233   -7.6695 C.3       5 UNK         0.0660 
     19 N          25.3135   -2.2489   -7.3126 N.am      5 UNK        -0.4015 
     20 C          24.8471   -1.1011   -7.8265 C.2       4 UNK         0.4946 
     21 O          25.3788   -0.4965   -8.7559 O.2       4 UNK        -0.5353 
     22 CA         23.5952   -0.4911   -7.1707 C.3       4 UNK         0.0277 
     23 CB         22.3450   -0.8196   -8.0021 C.3       4 UNK        -0.1981 
     24 N          23.3717   -0.8897   -5.7751 N.am      4 UNK        -0.4209 
     25 C          24.2138   -0.6705   -4.7548 C.2       3 UNK         0.4942 
     26 O          25.3292   -0.1558   -4.8755 O.2       3 UNK        -0.5208 
     27 CA         23.7357   -1.1567   -3.3829 C.3       3 UNK         0.0250 
     28 CB         23.8886   -2.6839   -3.2586 C.3       3 UNK        -0.1990 
     29 N          24.5135   -0.5065   -2.3329 N.am      3 UNK        -0.4232 
     30 C          24.0591   -0.1785   -1.1188 C.2       2 UNK         0.4993 
     31 O          22.9038   -0.3879   -0.7426 O.2       2 UNK        -0.5286 
     32 CA         25.0837    0.4428   -0.1499 C.3       2 UNK         0.0209 
     33 CB         24.4337    0.9947    1.1332 C.3       2 UNK        -0.1931 
     34 N          26.0967   -0.5472    0.2218 N.am      2 UNK        -0.4546 
     35 C          27.1460   -0.8871   -0.5395 C.2       1 UNK         0.5154 
     36 O          27.4199   -0.3185   -1.5973 O.2       1 UNK        -0.5181 
     37 C          27.7714   -1.9634   -7.5769 C.2       5 UNK         0.5014 
     38 O          28.5042   -1.8005   -8.5530 O.2       5 UNK        -0.5248 
     39 N          27.9158   -1.3153   -6.4123 N.am      6 UNK        -0.4434 
     40 CA         29.0048   -0.3904   -6.1076 C.3       6 UNK         0.0363 
     41 CB         29.0256   -0.1271   -4.5955 C.3       6 UNK        -0.1936 
     42 C          28.9126    0.9237   -6.8962 C.2       6 UNK         0.5081 
     43 O          29.9475    1.5157   -7.2056 O.2       6 UNK        -0.5248 
     44 N          27.6861    1.3504   -7.2259 N.am      7 UNK        -0.4718 
     45 CA         27.4246    2.5059   -8.0834 C.3       7 UNK         0.0273 
     46 CB         25.9556    2.9385   -7.9491 C.3       7 UNK        -0.1935 
     47 C          27.7888    2.2166   -9.5480 C.2       7 UNK         0.5018 
     48 O          28.4927    3.0182  -10.1616 O.2       7 UNK        -0.5186 
     49 N          27.3344    1.0668  -10.0686 N.am      8 UNK        -0.4240 
     50 CA         27.5952    0.6006  -11.4332 C.3       8 UNK         0.0235 
     51 CB         26.7373   -0.6406  -11.7275 C.3       8 UNK        -0.2000 
     52 C          29.0801    0.3064  -11.6957 C.2       8 UNK         0.4941 
     53 O          29.5938    0.6863  -12.7485 O.2       8 UNK        -0.5273 
     54 N          29.7469   -0.3412  -10.7307 N.am      9 UNK        -0.4262 
     55 CA         31.1811   -0.6379  -10.7739 C.3       9 UNK         0.0264 
     56 CB         31.4694   -1.8163   -9.8331 C.3       9 UNK        -0.1955 
     57 C          32.0784    0.5722  -10.4418 C.2       9 UNK         0.5031 
     58 O          33.2878    0.4836  -10.6599 O.2       9 UNK        -0.5390 
     59 N          31.4849    1.6676   -9.9405 N.am      10 UNK        -0.4204 
     60 CA         32.1166    2.9325   -9.5449 C.3       10 UNK         0.0237 
     61 CB         32.6871    3.6711  -10.7747 C.3       10 UNK        -0.1985 
     62 C          33.1444    2.7492   -8.4115 C.2       10 UNK         0.4970 
     63 O          34.2891    3.1922   -8.5289 O.2       10 UNK        -0.4914 
     64 N          32.7029    2.0924   -7.3361 N.am      11 UNK        -0.4285 
     65 CA         33.4938    1.7555   -6.1423 C.3       11 UNK         0.1007 
     66 C          32.7534    2.0327   -4.8035 C.2       11 UNK         0.5703 
     67 N          31.5372    2.5657   -4.8105 N.am      11 UNK        -0.7361 
     68 O          33.3074    1.7950   -3.7328 O.2       11 UNK        -0.4986 
     69 C69        34.1013    0.3267   -6.2278 C.3       12 UNK        -0.0947 
     70 S70        32.8756   -0.9601   -6.6368 S.3       12 UNK        -0.2240 
     71 C71        32.7298   -1.8919   -5.0771 C.3       12 UNK         0.0194 
     72 H72        28.3898   -0.4127    4.1153 H         1 UNK         0.0906 
     73 H73        28.2626   -2.1670    3.9740 H         1 UNK         0.0906 
     74 H74        29.8506   -1.3994    4.0186 H         1 UNK         0.0906 
     75 H75        27.6887   -2.8098    1.9104 H         1 UNK         0.3140 
     76 H76        29.0270   -1.8910   -0.4491 H         1 UNK         0.1085 
     77 H77        28.0487   -4.2371   -0.0455 H         1 UNK         0.0836 
     78 H78        26.4631   -3.5654   -0.2924 H         1 UNK         0.0836 
     79 H79        29.1503   -5.5786   -2.3398 H         1 UNK         0.0731 
     80 H80        29.9503   -4.1978   -1.6196 H         1 UNK         0.0731 
     81 H81        31.3649   -2.7911   -2.9287 H         1 UNK         0.1312 
     82 H82        31.5359   -3.2682   -7.1869 H         1 UNK         0.1406 
     83 H83        28.7099   -5.5176   -4.8891 H         1 UNK         0.1631 
     84 H84        30.1292   -5.8340   -7.8014 H         1 UNK         0.0717 
     85 H85        29.6354   -4.2408   -8.2986 H         1 UNK         0.0717 
     86 H86        25.8236   -4.6288   -6.5558 H         1 UNK         0.0934 
     87 H87        27.1902   -3.9093   -5.7991 H         1 UNK         0.0934 
     88 H88        26.4692   -3.2384   -8.7103 H         1 UNK         0.0739 
     89 H89        24.7848   -2.6628   -6.5603 H         1 UNK         0.3093 
     90 H90        23.7308    0.5921   -7.1760 H         1 UNK         0.0818 
     91 H91        21.4650   -0.3020   -7.6197 H         1 UNK         0.0819 
     92 H92        22.4738   -0.5082   -9.0400 H         1 UNK         0.0819 
     93 H93        22.1317   -1.8892   -8.0076 H         1 UNK         0.0819 
     94 H94        22.4842   -1.3299   -5.5763 H         1 UNK         0.3041 
     95 H95        22.6829   -0.8850   -3.2780 H         1 UNK         0.0784 
     96 H96        23.2902   -3.2064   -4.0056 H         1 UNK         0.0793 
     97 H97        24.9253   -2.9954   -3.3918 H         1 UNK         0.0793 
     98 H98        23.5598   -3.0364   -2.2807 H         1 UNK         0.0793 
     99 H99        25.4769   -0.2946   -2.5769 H         1 UNK         0.3024 
    100 H100       25.5630    1.2776   -0.6672 H         1 UNK         0.1171 
    101 H101       25.1721    1.4746    1.7758 H         1 UNK         0.0786 
    102 H102       23.6771    1.7438    0.8956 H         1 UNK         0.0786 
    103 H103       23.9455    0.2097    1.7122 H         1 UNK         0.0786 
    104 H104       25.9351   -1.0663    1.0725 H         1 UNK         0.2977 
    105 H105       27.2215   -1.4417   -5.6881 H         1 UNK         0.3127 
    106 H106       29.9407   -0.8747   -6.3868 H         1 UNK         0.0770 
    107 H107       28.1385    0.4161   -4.2668 H         1 UNK         0.0814 
    108 H108       29.8970    0.4613   -4.3126 H         1 UNK         0.0814 
    109 H109       29.0724   -1.0578   -4.0297 H         1 UNK         0.0814 
    110 H110       26.8914    0.7999   -6.9311 H         1 UNK         0.2983 
    111 H111       28.0520    3.3322   -7.7407 H         1 UNK         0.0947 
    112 H112       25.7635    3.8404   -8.5317 H         1 UNK         0.0806 
    113 H113       25.7004    3.1616   -6.9130 H         1 UNK         0.0806 
    114 H114       25.2689    2.1713   -8.3062 H         1 UNK         0.0806 
    115 H115       26.7337    0.4735   -9.4971 H         1 UNK         0.3000 
    116 H116       27.2905    1.3956  -12.1172 H         1 UNK         0.0850 
    117 H117       26.9064   -1.0032  -12.7423 H         1 UNK         0.0810 
    118 H118       25.6743   -0.4173  -11.6349 H         1 UNK         0.0810 
    119 H119       26.9655   -1.4592  -11.0433 H         1 UNK         0.0810 
    120 H120       29.2361   -0.6819   -9.9176 H         1 UNK         0.3040 
    121 H121       31.4388   -0.9519  -11.7876 H         1 UNK         0.0766 
    122 H122       31.1437   -1.5927   -8.8185 H         1 UNK         0.0812 
    123 H123       32.5347   -2.0478   -9.7960 H         1 UNK         0.0812 
    124 H124       30.9494   -2.7179  -10.1566 H         1 UNK         0.0812 
    125 H125       30.4864    1.6229   -9.7855 H         1 UNK         0.3205 
    126 H126       31.3177    3.5520   -9.1341 H         1 UNK         0.0754 
    127 H127       33.0588    4.6586  -10.4986 H         1 UNK         0.0769 
    128 H128       31.9224    3.8146  -11.5382 H         1 UNK         0.0769 
    129 H129       33.5161    3.1270  -11.2283 H         1 UNK         0.0769 
    130 H130       31.7374    1.7671   -7.3251 H         1 UNK         0.2981 
    131 H131       34.3368    2.4472   -6.0998 H         1 UNK         0.0541 
    132 H132       31.0478    2.7245   -5.6786 H         1 UNK         0.3459 
    133 H133       31.0853    2.7633   -3.9325 H         1 UNK         0.3459 
    134 H134       34.6321    0.0620   -5.3117 H         1 UNK         0.0612 
    135 H135       34.8553    0.3097   -7.0159 H         1 UNK         0.0612 
    136 H136       33.6722   -2.4044   -4.8809 H         1 UNK         0.0624 
    137 H137       32.5841   -1.1743   -4.2679 H         1 UNK         0.0624 
@<TRIPOS>BOND
     1    1    2 1    
     2    1   72 1    
     3    1   73 1    
     4    1   74 1    
     5    2    3 2    
     6    2    4 am   BACKBONE|DICT|INTERRES
     7    4    5 1    
     8    4   75 1    
     9    5    6 1    
    10    5   35 1    
    11    5   76 1    
    12    6    7 1    
    13    6   77 1    
    14    6   78 1    
    15    7    8 1    
    16    8    9 1    
    17    8   79 1    
    18    8   80 1    
    19    9   10 ar   
    20    9   14 ar   
    21   10   11 ar   
    22   10   81 1    
    23   11   12 ar   
    24   11   71 1    
    25   12   13 ar   
    26   12   82 1    
    27   13   14 ar   
    28   13   15 1    
    29   14   83 1    
    30   15   16 1    
    31   15   84 1    
    32   15   85 1    
    33   16   17 1    
    34   17   18 1    
    35   17   86 1    
    36   17   87 1    
    37   18   19 1    
    38   18   37 1    
    39   18   88 1    
    40   19   20 am   BACKBONE|DICT|INTERRES
    41   19   89 1    
    42   20   21 2    
    43   20   22 1    
    44   22   23 1    
    45   22   24 1    
    46   22   90 1    
    47   23   91 1    
    48   23   92 1    
    49   23   93 1    
    50   24   25 am   BACKBONE|DICT|INTERRES
    51   24   94 1    
    52   25   26 2    
    53   25   27 1    
    54   27   28 1    
    55   27   29 1    
    56   27   95 1    
    57   28   96 1    
    58   28   97 1    
    59   28   98 1    
    60   29   30 am   BACKBONE|DICT|INTERRES
    61   29   99 1    
    62   30   31 2    
    63   30   32 1    
    64   32   33 1    
    65   32   34 1    
    66   32  100 1    
    67   33  101 1    
    68   33  102 1    
    69   33  103 1    
    70   34   35 am   BACKBONE|DICT|INTERRES
    71   34  104 1    
    72   35   36 2    
    73   37   38 2    
    74   37   39 am   BACKBONE|DICT|INTERRES
    75   39   40 1    
    76   39  105 1    
    77   40   41 1    
    78   40   42 1    
    79   40  106 1    
    80   41  107 1    
    81   41  108 1    
    82   41  109 1    
    83   42   43 2    
    84   42   44 am   BACKBONE|DICT|INTERRES
    85   44   45 1    
    86   44  110 1    
    87   45   46 1    
    88   45   47 1    
    89   45  111 1    
    90   46  112 1    
    91   46  113 1    
    92   46  114 1    
    93   47   48 2    
    94   47   49 am   BACKBONE|DICT|INTERRES
    95   49   50 1    
    96   49  115 1    
    97   50   51 1    
    98   50   52 1    
    99   50  116 1    
   100   51  117 1    
   101   51  118 1    
   102   51  119 1    
   103   52   53 2    
   104   52   54 am   BACKBONE|DICT|INTERRES
   105   54   55 1    
   106   54  120 1    
   107   55   56 1    
   108   55   57 1    
   109   55  121 1    
   110   56  122 1    
   111   56  123 1    
   112   56  124 1    
   113   57   58 2    
   114   57   59 am   BACKBONE|DICT|INTERRES
   115   59   60 1    
   116   59  125 1    
   117   60   61 1    
   118   60   62 1    
   119   60  126 1    
   120   61  127 1    
   121   61  128 1    
   122   61  129 1    
   123   62   63 2    
   124   62   64 am   BACKBONE|DICT|INTERRES
   125   64   65 1    
   126   64  130 1    
   127   65   66 1    
   128   65   69 1    
   129   65  131 1    
   130   66   67 am   BACKBONE|DICT|INTERRES
   131   66   68 2    
   132   67  132 1    
   133   67  133 1    
   134   69   70 1    
   135   69  134 1    
   136   69  135 1    
   137   70   71 1    
   138   71  136 1    
   139   71  137 1    
@<TRIPOS>SUBSTRUCTURE
     1 UNK         1 GROUP             0       ****    0 ROOT    
