@<TRIPOS>MOLECULE
3R137
137   139    1
SMALL
USER_CHARGES


@<TRIPOS>ATOM
      1 CA         24.4208   -5.7059   -4.8243 C.3       0 UNK        -0.2020 
      2 C          24.9100   -4.9916   -3.5740 C.2       0 UNK         0.4855 
      3 O          24.1063   -4.4117   -2.8430 O.2       0 UNK        -0.5197 
      4 N          26.2263   -5.0174   -3.3285 N.am      1 UNK        -0.4892 
      5 CA         26.8985   -4.3547   -2.2058 C.3       1 UNK         0.0835 
      6 C6         28.3939   -4.7543   -2.1610 C.3       12 UNK        -0.0855 
      7 S7         29.2177   -4.2851   -0.6009 S.3       12 UNK        -0.2931 
      8 C8         30.9816   -4.3654   -1.0877 C.3       12 UNK         0.0378 
      9 C9         31.4739   -3.2843   -2.0567 C.ar      12 UNK        -0.0802 
     10 C10        32.7938   -3.3519   -2.5166 C.ar      12 UNK        -0.0944 
     11 C11        33.2908   -2.3996   -3.4125 C.ar      12 UNK        -0.0787 
     12 C12        32.4613   -1.3624   -3.8478 C.ar      12 UNK        -0.0862 
     13 C13        31.1419   -1.2761   -3.3998 C.ar      12 UNK        -0.0733 
     14 C14        30.6601   -2.2365   -2.5057 C.ar      12 UNK        -0.0832 
     15 C15        30.2205   -0.1847   -3.9289 C.3       12 UNK         0.0240 
     16 S16        29.2415    0.6024   -2.6018 S.3       12 UNK        -0.2522 
     17 C17        28.0813    1.7443   -3.4325 C.3       12 UNK        -0.0967 
     18 CA         27.7652    1.4966   -4.9295 C.3       5 UNK         0.0660 
     19 N          27.2219    0.1608   -5.2093 N.am      5 UNK        -0.4015 
     20 C          27.0224   -0.3258   -6.4453 C.2       4 UNK         0.4946 
     21 O          27.3216    0.2805   -7.4726 O.2       4 UNK        -0.5353 
     22 CA         26.3107   -1.6814   -6.5670 C.3       4 UNK         0.0277 
     23 CB         27.3039   -2.8511   -6.4599 C.3       4 UNK        -0.1981 
     24 N          25.2472   -1.8104   -5.5695 N.am      4 UNK        -0.4209 
     25 C          24.0886   -1.1338   -5.6292 C.2       3 UNK         0.4942 
     26 O          23.7644   -0.4247   -6.5809 O.2       3 UNK        -0.5208 
     27 CA         23.1554   -1.2127   -4.4086 C.3       3 UNK         0.0250 
     28 CB         22.1000   -2.3138   -4.5931 C.3       3 UNK        -0.1990 
     29 N          23.8862   -1.4133   -3.1537 N.am      3 UNK        -0.4232 
     30 C          24.6565   -0.4693   -2.5895 C.2       2 UNK         0.4993 
     31 O          24.7732    0.6685   -3.0459 O.2       2 UNK        -0.5286 
     32 CA         25.4813   -0.8664   -1.3504 C.3       2 UNK         0.0209 
     33 CB         24.6996   -0.5612   -0.0634 C.3       2 UNK        -0.1931 
     34 N          25.9019   -2.2720   -1.3478 N.am      2 UNK        -0.4546 
     35 C          26.6839   -2.8267   -2.2842 C.2       1 UNK         0.5154 
     36 O          27.1588   -2.1912   -3.2273 O.2       1 UNK        -0.5181 
     37 C          26.8250    2.5987   -5.4572 C.2       5 UNK         0.5014 
     38 O          27.2987    3.5336   -6.1027 O.2       5 UNK        -0.5248 
     39 N          25.5121    2.4479   -5.2206 N.am      6 UNK        -0.4434 
     40 CA         24.4615    3.3321   -5.7392 C.3       6 UNK         0.0363 
     41 CB         23.1055    2.9230   -5.1438 C.3       6 UNK        -0.1936 
     42 C          24.3902    3.3626   -7.2782 C.2       6 UNK         0.5081 
     43 O          24.1164    4.4176   -7.8501 O.2       6 UNK        -0.5248 
     44 N          24.6736    2.2215   -7.9206 N.am      7 UNK        -0.4718 
     45 CA         24.7954    2.0801   -9.3750 C.3       7 UNK         0.0273 
     46 CB         24.5568    0.6068   -9.7480 C.3       7 UNK        -0.1935 
     47 C          26.1489    2.5664   -9.9354 C.2       7 UNK         0.5018 
     48 O          26.3187    2.5578  -11.1554 O.2       7 UNK        -0.5186 
     49 N          27.0844    2.9578   -9.0553 N.am      8 UNK        -0.4240 
     50 CA         28.4664    3.3723   -9.3285 C.3       8 UNK         0.0235 
     51 CB         28.5090    4.6556  -10.1854 C.3       8 UNK        -0.2000 
     52 C          29.3528    2.2437   -9.8934 C.2       8 UNK         0.4941 
     53 O          30.3542    2.5252  -10.5554 O.2       8 UNK        -0.5273 
     54 N          29.0098    0.9842   -9.5943 N.am      9 UNK        -0.4262 
     55 CA         29.7619   -0.2104   -9.9737 C.3       9 UNK         0.0264 
     56 CB         28.7771   -1.3762  -10.1802 C.3       9 UNK        -0.1955 
     57 C          30.8346   -0.5070   -8.9120 C.2       9 UNK         0.5031 
     58 O          30.7574   -1.5182   -8.2112 O.2       9 UNK        -0.5390 
     59 N          31.8001    0.4124   -8.7915 N.am      10 UNK        -0.4204 
     60 CA         32.9414    0.3230   -7.8800 C.3       10 UNK         0.0237 
     61 CB         33.5940    1.7109   -7.7664 C.3       10 UNK        -0.1985 
     62 C          33.9691   -0.7271   -8.3382 C.2       10 UNK         0.4970 
     63 O          34.0196   -1.0701   -9.5222 O.2       10 UNK        -0.4914 
     64 N          34.7890   -1.1918   -7.3885 N.am      11 UNK        -0.4285 
     65 CA         35.8264   -2.2175   -7.5991 C.3       11 UNK         0.1007 
     66 C          37.0806   -1.7317   -8.3842 C.2       11 UNK         0.5703 
     67 N          37.2630   -0.4373   -8.6186 N.am      11 UNK        -0.7361 
     68 O          37.9017   -2.5488   -8.7944 O.2       11 UNK        -0.4986 
     69 C69        36.2389   -2.9054   -6.2687 C.3       12 UNK        -0.0947 
     70 S70        34.8141   -3.6031   -5.3659 S.3       12 UNK        -0.2240 
     71 C71        34.7181   -2.4943   -3.9261 C.3       12 UNK         0.0194 
     72 H72        25.1807   -6.3699   -5.2359 H         1 UNK         0.0906 
     73 H73        23.5397   -6.3048   -4.5948 H         1 UNK         0.0906 
     74 H74        24.1510   -4.9808   -5.5914 H         1 UNK         0.0906 
     75 H75        26.8358   -5.4941   -3.9778 H         1 UNK         0.3140 
     76 H76        26.4268   -4.7236   -1.2922 H         1 UNK         0.1085 
     77 H77        28.4881   -5.8378   -2.2528 H         1 UNK         0.0836 
     78 H78        28.9290   -4.3389   -3.0166 H         1 UNK         0.0836 
     79 H79        31.1762   -5.3480   -1.5205 H         1 UNK         0.0731 
     80 H80        31.5817   -4.3067   -0.1786 H         1 UNK         0.0731 
     81 H81        33.4364   -4.1568   -2.1858 H         1 UNK         0.1312 
     82 H82        32.8393   -0.6308   -4.5475 H         1 UNK         0.1406 
     83 H83        29.6359   -2.1569   -2.1744 H         1 UNK         0.1631 
     84 H84        29.5712   -0.6581   -4.6620 H         1 UNK         0.0717 
     85 H85        30.7880    0.5852   -4.4538 H         1 UNK         0.0717 
     86 H86        27.1618    1.7462   -2.8454 H         1 UNK         0.0934 
     87 H87        28.4999    2.7458   -3.3121 H         1 UNK         0.0934 
     88 H88        28.6972    1.5887   -5.4910 H         1 UNK         0.0739 
     89 H89        27.0053   -0.4255   -4.4109 H         1 UNK         0.3093 
     90 H90        25.8525   -1.7281   -7.5573 H         1 UNK         0.0818 
     91 H91        27.8722   -2.8329   -5.5314 H         1 UNK         0.0819 
     92 H92        26.7952   -3.8127   -6.5255 H         1 UNK         0.0819 
     93 H93        28.0323   -2.8151   -7.2704 H         1 UNK         0.0819 
     94 H94        25.4793   -2.3118   -4.7228 H         1 UNK         0.3041 
     95 H95        22.6281   -0.2591   -4.3380 H         1 UNK         0.0784 
     96 H96        21.4955   -2.1246   -5.4812 H         1 UNK         0.0793 
     97 H97        22.5513   -3.2975   -4.7142 H         1 UNK         0.0793 
     98 H98        21.4200   -2.3590   -3.7424 H         1 UNK         0.0793 
     99 H99        23.8677   -2.3467   -2.7539 H         1 UNK         0.3024 
    100 H100       26.3854   -0.2532   -1.3567 H         1 UNK         0.1171 
    101 H101       24.3951    0.4861   -0.0318 H         1 UNK         0.0786 
    102 H102       25.3065   -0.7465    0.8231 H         1 UNK         0.0786 
    103 H103       23.7955   -1.1664    0.0141 H         1 UNK         0.0786 
    104 H104       25.5157   -2.8600   -0.6229 H         1 UNK         0.2977 
    105 H105       25.2118    1.6883   -4.6131 H         1 UNK         0.3127 
    106 H106       24.6911    4.3446   -5.4008 H         1 UNK         0.0770 
    107 H107       22.8105    1.9237   -5.4641 H         1 UNK         0.0814 
    108 H108       22.3192    3.6104   -5.4586 H         1 UNK         0.0814 
    109 H109       23.1290    2.9331   -4.0538 H         1 UNK         0.0814 
    110 H110       24.8328    1.3842   -7.3723 H         1 UNK         0.2983 
    111 H111       24.0170    2.6814   -9.8496 H         1 UNK         0.0947 
    112 H112       24.5637    0.4692  -10.8300 H         1 UNK         0.0806 
    113 H113       23.5912    0.2556   -9.3836 H         1 UNK         0.0806 
    114 H114       25.3275   -0.0430   -9.3331 H         1 UNK         0.0806 
    115 H115       26.8441    2.9179   -8.0710 H         1 UNK         0.3000 
    116 H116       28.8954    3.6188   -8.3564 H         1 UNK         0.0850 
    117 H117       29.5233    5.0521  -10.2454 H         1 UNK         0.0810 
    118 H118       27.8819    5.4383   -9.7584 H         1 UNK         0.0810 
    119 H119       28.1728    4.4739  -11.2065 H         1 UNK         0.0810 
    120 H120       28.2406    0.8309   -8.9420 H         1 UNK         0.3040 
    121 H121       30.2742   -0.0395  -10.9231 H         1 UNK         0.0766 
    122 H122       28.0698   -1.1572  -10.9801 H         1 UNK         0.0812 
    123 H123       28.2029   -1.5849   -9.2783 H         1 UNK         0.0812 
    124 H124       29.3048   -2.2909  -10.4529 H         1 UNK         0.0812 
    125 H125       31.7720    1.2063   -9.4201 H         1 UNK         0.3205 
    126 H126       32.5642    0.0305   -6.8979 H         1 UNK         0.0754 
    127 H127       34.4209    1.7030   -7.0551 H         1 UNK         0.0769 
    128 H128       32.8794    2.4571   -7.4178 H         1 UNK         0.0769 
    129 H129       33.9905    2.0497   -8.7247 H         1 UNK         0.0769 
    130 H130       34.7028   -0.8430   -6.4470 H         1 UNK         0.2981 
    131 H131       35.3779   -2.9900   -8.2271 H         1 UNK         0.0541 
    132 H132       36.5948    0.2415   -8.2928 H         1 UNK         0.3459 
    133 H133       38.0777   -0.1393   -9.1318 H         1 UNK         0.3459 
    134 H134       36.9274   -3.7288   -6.4673 H         1 UNK         0.0612 
    135 H135       36.7826   -2.2096   -5.6273 H         1 UNK         0.0612 
    136 H136       35.0778   -1.4993   -4.1915 H         1 UNK         0.0624 
    137 H137       35.3816   -2.8628   -3.1423 H         1 UNK         0.0624 
@<TRIPOS>BOND
     1    1    2 1    
     2    1   72 1    
     3    1   73 1    
     4    1   74 1    
     5    2    3 2    
     6    2    4 am   BACKBONE|DICT|INTERRES
     7    4    5 1    
     8    4   75 1    
     9    5    6 1    
    10    5   35 1    
    11    5   76 1    
    12    6    7 1    
    13    6   77 1    
    14    6   78 1    
    15    7    8 1    
    16    8    9 1    
    17    8   79 1    
    18    8   80 1    
    19    9   10 ar   
    20    9   14 ar   
    21   10   11 ar   
    22   10   81 1    
    23   11   12 ar   
    24   11   71 1    
    25   12   13 ar   
    26   12   82 1    
    27   13   14 ar   
    28   13   15 1    
    29   14   83 1    
    30   15   16 1    
    31   15   84 1    
    32   15   85 1    
    33   16   17 1    
    34   17   18 1    
    35   17   86 1    
    36   17   87 1    
    37   18   19 1    
    38   18   37 1    
    39   18   88 1    
    40   19   20 am   BACKBONE|DICT|INTERRES
    41   19   89 1    
    42   20   21 2    
    43   20   22 1    
    44   22   23 1    
    45   22   24 1    
    46   22   90 1    
    47   23   91 1    
    48   23   92 1    
    49   23   93 1    
    50   24   25 am   BACKBONE|DICT|INTERRES
    51   24   94 1    
    52   25   26 2    
    53   25   27 1    
    54   27   28 1    
    55   27   29 1    
    56   27   95 1    
    57   28   96 1    
    58   28   97 1    
    59   28   98 1    
    60   29   30 am   BACKBONE|DICT|INTERRES
    61   29   99 1    
    62   30   31 2    
    63   30   32 1    
    64   32   33 1    
    65   32   34 1    
    66   32  100 1    
    67   33  101 1    
    68   33  102 1    
    69   33  103 1    
    70   34   35 am   BACKBONE|DICT|INTERRES
    71   34  104 1    
    72   35   36 2    
    73   37   38 2    
    74   37   39 am   BACKBONE|DICT|INTERRES
    75   39   40 1    
    76   39  105 1    
    77   40   41 1    
    78   40   42 1    
    79   40  106 1    
    80   41  107 1    
    81   41  108 1    
    82   41  109 1    
    83   42   43 2    
    84   42   44 am   BACKBONE|DICT|INTERRES
    85   44   45 1    
    86   44  110 1    
    87   45   46 1    
    88   45   47 1    
    89   45  111 1    
    90   46  112 1    
    91   46  113 1    
    92   46  114 1    
    93   47   48 2    
    94   47   49 am   BACKBONE|DICT|INTERRES
    95   49   50 1    
    96   49  115 1    
    97   50   51 1    
    98   50   52 1    
    99   50  116 1    
   100   51  117 1    
   101   51  118 1    
   102   51  119 1    
   103   52   53 2    
   104   52   54 am   BACKBONE|DICT|INTERRES
   105   54   55 1    
   106   54  120 1    
   107   55   56 1    
   108   55   57 1    
   109   55  121 1    
   110   56  122 1    
   111   56  123 1    
   112   56  124 1    
   113   57   58 2    
   114   57   59 am   BACKBONE|DICT|INTERRES
   115   59   60 1    
   116   59  125 1    
   117   60   61 1    
   118   60   62 1    
   119   60  126 1    
   120   61  127 1    
   121   61  128 1    
   122   61  129 1    
   123   62   63 2    
   124   62   64 am   BACKBONE|DICT|INTERRES
   125   64   65 1    
   126   64  130 1    
   127   65   66 1    
   128   65   69 1    
   129   65  131 1    
   130   66   67 am   BACKBONE|DICT|INTERRES
   131   66   68 2    
   132   67  132 1    
   133   67  133 1    
   134   69   70 1    
   135   69  134 1    
   136   69  135 1    
   137   70   71 1    
   138   71  136 1    
   139   71  137 1    
@<TRIPOS>SUBSTRUCTURE
     1 UNK         1 GROUP             0       ****    0 ROOT    
