@<TRIPOS>MOLECULE
3R137
137   139    1
SMALL
USER_CHARGES


@<TRIPOS>ATOM
      1 CA         27.7649   -6.4512   -5.6955 C.3       0 UNK        -0.2020 
      2 C          27.5145   -6.3498   -4.1979 C.2       0 UNK         0.4855 
      3 O          26.7653   -7.1558   -3.6459 O.2       0 UNK        -0.5197 
      4 N          28.1378   -5.3642   -3.5375 N.am      1 UNK        -0.4892 
      5 CA         28.0472   -5.1206   -2.0887 C.3       1 UNK         0.0835 
      6 C6         29.1180   -4.1071   -1.6161 C.3       12 UNK        -0.0855 
      7 S7         30.8174   -4.6248   -2.0357 S.3       12 UNK        -0.2931 
      8 C8         31.8006   -3.4870   -1.0086 C.3       12 UNK         0.0378 
      9 C9         31.6076   -2.0379   -1.4316 C.ar      12 UNK        -0.0802 
     10 C10        32.3111   -1.5243   -2.5242 C.ar      12 UNK        -0.0944 
     11 C11        32.1233   -0.1995   -2.9298 C.ar      12 UNK        -0.0787 
     12 C12        31.2434    0.6195   -2.2160 C.ar      12 UNK        -0.0862 
     13 C13        30.5266    0.1160   -1.1241 C.ar      12 UNK        -0.0733 
     14 C14        30.7207   -1.2125   -0.7346 C.ar      12 UNK        -0.0832 
     15 C15        29.5555    0.9919   -0.3376 C.3       12 UNK         0.0240 
     16 S16        28.4945    2.0508   -1.3764 S.3       12 UNK        -0.2522 
     17 C17        27.5956    0.8408   -2.4113 C.3       12 UNK        -0.0967 
     18 CA         27.9066    0.9755   -3.9260 C.3       5 UNK         0.0660 
     19 N          27.3325   -0.1362   -4.6907 N.am      5 UNK        -0.4015 
     20 C          27.6629   -0.4305   -5.9592 C.2       4 UNK         0.4946 
     21 O          28.5828    0.1130   -6.5631 O.2       4 UNK        -0.5353 
     22 CA         26.8365   -1.4973   -6.7053 C.3       4 UNK         0.0277 
     23 CB         27.6038   -2.8299   -6.7459 C.3       4 UNK        -0.1981 
     24 N          25.4985   -1.7293   -6.1559 N.am      4 UNK        -0.4209 
     25 C          24.5326   -0.8079   -6.0276 C.2       3 UNK         0.4942 
     26 O          24.6234    0.3415   -6.4574 O.2       3 UNK        -0.5208 
     27 CA         23.2871   -1.2096   -5.2143 C.3       3 UNK         0.0250 
     28 CB         22.1489   -1.6320   -6.1563 C.3       3 UNK        -0.1990 
     29 N          23.5191   -2.2698   -4.2204 N.am      3 UNK        -0.4232 
     30 C          24.4353   -2.2400   -3.2396 C.2       2 UNK         0.4993 
     31 O          25.2202   -1.3045   -3.0724 O.2       2 UNK        -0.5286 
     32 CA         24.5618   -3.4758   -2.3401 C.3       2 UNK         0.0209 
     33 CB         23.4937   -4.5659   -2.5777 C.3       2 UNK        -0.1931 
     34 N          25.8949   -4.0313   -2.5536 N.am      2 UNK        -0.4546 
     35 C          26.6454   -4.6520   -1.6367 C.2       1 UNK         0.5154 
     36 O          26.2804   -4.8547   -0.4771 O.2       1 UNK        -0.5181 
     37 C          27.4368    2.3356   -4.4916 C.2       5 UNK         0.5014 
     38 O          28.2483    3.2529   -4.6258 O.2       5 UNK        -0.5248 
     39 N          26.1378    2.4419   -4.8141 N.am      6 UNK        -0.4434 
     40 CA         25.5301    3.6341   -5.4083 C.3       6 UNK         0.0363 
     41 CB         24.0030    3.5871   -5.2352 C.3       6 UNK        -0.1936 
     42 C          25.9194    3.7729   -6.8862 C.2       6 UNK         0.5081 
     43 O          26.3756    4.8379   -7.3038 O.2       6 UNK        -0.5248 
     44 N          25.7949    2.6747   -7.6415 N.am      7 UNK        -0.4718 
     45 CA         26.2766    2.5387   -9.0163 C.3       7 UNK         0.0273 
     46 CB         25.4338    1.4659   -9.7313 C.3       7 UNK        -0.1935 
     47 C          27.7808    2.2091   -9.0190 C.2       7 UNK         0.5018 
     48 O          28.1722    1.1493   -9.5080 O.2       7 UNK        -0.5186 
     49 N          28.5875    3.1201   -8.4522 N.am      8 UNK        -0.4240 
     50 CA         30.0024    2.9578   -8.0827 C.3       8 UNK         0.0235 
     51 CB         30.5277    4.2888   -7.5226 C.3       8 UNK        -0.2000 
     52 C          30.9486    2.4265   -9.1752 C.2       8 UNK         0.4941 
     53 O          31.9807    1.8419   -8.8449 O.2       8 UNK        -0.5273 
     54 N          30.5776    2.5948  -10.4515 N.am      9 UNK        -0.4262 
     55 CA         31.2445    1.9808  -11.6022 C.3       9 UNK         0.0264 
     56 CB         30.6033    2.5075  -12.8962 C.3       9 UNK        -0.1955 
     57 C          31.2256    0.4380  -11.5799 C.2       9 UNK         0.5031 
     58 O          32.1127   -0.1736  -12.1770 O.2       9 UNK        -0.5390 
     59 N          30.2362   -0.1639  -10.9014 N.am      10 UNK        -0.4204 
     60 CA         30.1358   -1.6070  -10.6951 C.3       10 UNK         0.0237 
     61 CB         28.7004   -1.9810  -10.2928 C.3       10 UNK        -0.1985 
     62 C          31.1466   -2.1178   -9.6567 C.2       10 UNK         0.4970 
     63 O          31.8077   -3.1224   -9.9238 O.2       10 UNK        -0.4914 
     64 N          31.2481   -1.4429   -8.5004 N.am      11 UNK        -0.4285 
     65 CA         32.1956   -1.8161   -7.4372 C.3       11 UNK         0.1007 
     66 C          33.6657   -1.3887   -7.7111 C.2       11 UNK         0.5703 
     67 N          33.9130   -0.3247   -8.4657 N.am      11 UNK        -0.7361 
     68 O          34.5939   -2.0461   -7.2461 O.2       11 UNK        -0.4986 
     69 C69        31.6961   -1.4193   -6.0228 C.3       12 UNK        -0.0947 
     70 S70        31.7988    0.3616   -5.6218 S.3       12 UNK        -0.2240 
     71 C71        32.8610    0.3497   -4.1429 C.3       12 UNK         0.0194 
     72 H72        28.5513   -5.7705   -6.0254 H         1 UNK         0.0906 
     73 H73        28.0670   -7.4663   -5.9562 H         1 UNK         0.0906 
     74 H74        26.8535   -6.2143   -6.2475 H         1 UNK         0.0906 
     75 H75        28.7887   -4.7687   -4.0299 H         1 UNK         0.3140 
     76 H76        28.2345   -6.0720   -1.5848 H         1 UNK         0.1085 
     77 H77        29.0592   -3.9728   -0.5337 H         1 UNK         0.0836 
     78 H78        28.9375   -3.1254   -2.0603 H         1 UNK         0.0836 
     79 H79        32.8547   -3.7554   -1.0935 H         1 UNK         0.0731 
     80 H80        31.5366   -3.6228    0.0415 H         1 UNK         0.0731 
     81 H81        32.9941   -2.1641   -3.0659 H         1 UNK         0.1312 
     82 H82        31.1030    1.6460   -2.5264 H         1 UNK         0.1406 
     83 H83        30.1767   -1.6090    0.1121 H         1 UNK         0.1631 
     84 H84        30.1309    1.6292    0.3348 H         1 UNK         0.0717 
     85 H85        28.9102    0.3803    0.2951 H         1 UNK         0.0717 
     86 H86        27.8427   -0.1672   -2.0740 H         1 UNK         0.0934 
     87 H87        26.5265    0.9577   -2.2240 H         1 UNK         0.0934 
     88 H88        28.9904    0.9261   -4.0530 H         1 UNK         0.0739 
     89 H89        26.5702   -0.6375   -4.2417 H         1 UNK         0.3093 
     90 H90        26.7075   -1.1388   -7.7283 H         1 UNK         0.0818 
     91 H91        27.7327   -3.2488   -5.7482 H         1 UNK         0.0819 
     92 H92        27.0895   -3.5678   -7.3619 H         1 UNK         0.0819 
     93 H93        28.5997   -2.6954   -7.1708 H         1 UNK         0.0819 
     94 H94        25.3121   -2.6519   -5.7942 H         1 UNK         0.3041 
     95 H95        22.9658   -0.3206   -4.6676 H         1 UNK         0.0784 
     96 H96        21.9398   -0.8519   -6.8901 H         1 UNK         0.0793 
     97 H97        22.3959   -2.5402   -6.7079 H         1 UNK         0.0793 
     98 H98        21.2242   -1.8118   -5.6074 H         1 UNK         0.0793 
     99 H99        22.9264   -3.0848   -4.2891 H         1 UNK         0.3024 
    100 H100       24.4755   -3.1186   -1.3111 H         1 UNK         0.1171 
    101 H101       23.6119   -5.3844   -1.8672 H         1 UNK         0.0786 
    102 H102       22.4854   -4.1730   -2.4394 H         1 UNK         0.0786 
    103 H103       23.5586   -4.9949   -3.5785 H         1 UNK         0.0786 
    104 H104       26.3005   -3.8804   -3.4654 H         1 UNK         0.2977 
    105 H105       25.5503    1.6224   -4.7470 H         1 UNK         0.3127 
    106 H106       25.9031    4.5134   -4.8783 H         1 UNK         0.0770 
    107 H107       23.5596    2.7255   -5.7354 H         1 UNK         0.0814 
    108 H108       23.5380    4.4802   -5.6546 H         1 UNK         0.0814 
    109 H109       23.7253    3.5425   -4.1821 H         1 UNK         0.0814 
    110 H110       25.4211    1.8310   -7.2095 H         1 UNK         0.2983 
    111 H111       26.1419    3.4836   -9.5474 H         1 UNK         0.0947 
    112 H112       25.7515    1.3448  -10.7677 H         1 UNK         0.0806 
    113 H113       24.3778    1.7357   -9.7446 H         1 UNK         0.0806 
    114 H114       25.5232    0.4933   -9.2459 H         1 UNK         0.0806 
    115 H115       28.1295    3.9439   -8.0782 H         1 UNK         0.3000 
    116 H116       30.0240    2.2249   -7.2745 H         1 UNK         0.0850 
    117 H117       31.5669    4.1955   -7.2034 H         1 UNK         0.0810 
    118 H118       29.9526    4.6050   -6.6518 H         1 UNK         0.0810 
    119 H119       30.4824    5.0852   -8.2662 H         1 UNK         0.0810 
    120 H120       29.7096    3.0780  -10.6302 H         1 UNK         0.3040 
    121 H121       32.2906    2.2937  -11.5832 H         1 UNK         0.0766 
    122 H122       30.6839    3.5924  -12.9674 H         1 UNK         0.0812 
    123 H123       29.5472    2.2423  -12.9601 H         1 UNK         0.0812 
    124 H124       31.0978    2.0896  -13.7742 H         1 UNK         0.0812 
    125 H125       29.5330    0.4088  -10.4328 H         1 UNK         0.3205 
    126 H126       30.3539   -2.1020  -11.6440 H         1 UNK         0.0754 
    127 H127       28.5988   -3.0583  -10.1555 H         1 UNK         0.0769 
    128 H128       27.9833   -1.6797  -11.0564 H         1 UNK         0.0769 
    129 H129       28.4102   -1.5029   -9.3580 H         1 UNK         0.0769 
    130 H130       30.6918   -0.6147   -8.3398 H         1 UNK         0.2981 
    131 H131       32.2208   -2.9078   -7.4222 H         1 UNK         0.0541 
    132 H132       33.1554    0.2912   -8.7464 H         1 UNK         0.3459 
    133 H133       34.8672   -0.0593   -8.6461 H         1 UNK         0.3459 
    134 H134       30.6597   -1.7326   -5.8918 H         1 UNK         0.0612 
    135 H135       32.2611   -1.9863   -5.2839 H         1 UNK         0.0612 
    136 H136       33.1888    1.3700   -3.9391 H         1 UNK         0.0624 
    137 H137       33.7645   -0.2275   -4.3461 H         1 UNK         0.0624 
@<TRIPOS>BOND
     1    1    2 1    
     2    1   72 1    
     3    1   73 1    
     4    1   74 1    
     5    2    3 2    
     6    2    4 am   BACKBONE|DICT|INTERRES
     7    4    5 1    
     8    4   75 1    
     9    5    6 1    
    10    5   35 1    
    11    5   76 1    
    12    6    7 1    
    13    6   77 1    
    14    6   78 1    
    15    7    8 1    
    16    8    9 1    
    17    8   79 1    
    18    8   80 1    
    19    9   10 ar   
    20    9   14 ar   
    21   10   11 ar   
    22   10   81 1    
    23   11   12 ar   
    24   11   71 1    
    25   12   13 ar   
    26   12   82 1    
    27   13   14 ar   
    28   13   15 1    
    29   14   83 1    
    30   15   16 1    
    31   15   84 1    
    32   15   85 1    
    33   16   17 1    
    34   17   18 1    
    35   17   86 1    
    36   17   87 1    
    37   18   19 1    
    38   18   37 1    
    39   18   88 1    
    40   19   20 am   BACKBONE|DICT|INTERRES
    41   19   89 1    
    42   20   21 2    
    43   20   22 1    
    44   22   23 1    
    45   22   24 1    
    46   22   90 1    
    47   23   91 1    
    48   23   92 1    
    49   23   93 1    
    50   24   25 am   BACKBONE|DICT|INTERRES
    51   24   94 1    
    52   25   26 2    
    53   25   27 1    
    54   27   28 1    
    55   27   29 1    
    56   27   95 1    
    57   28   96 1    
    58   28   97 1    
    59   28   98 1    
    60   29   30 am   BACKBONE|DICT|INTERRES
    61   29   99 1    
    62   30   31 2    
    63   30   32 1    
    64   32   33 1    
    65   32   34 1    
    66   32  100 1    
    67   33  101 1    
    68   33  102 1    
    69   33  103 1    
    70   34   35 am   BACKBONE|DICT|INTERRES
    71   34  104 1    
    72   35   36 2    
    73   37   38 2    
    74   37   39 am   BACKBONE|DICT|INTERRES
    75   39   40 1    
    76   39  105 1    
    77   40   41 1    
    78   40   42 1    
    79   40  106 1    
    80   41  107 1    
    81   41  108 1    
    82   41  109 1    
    83   42   43 2    
    84   42   44 am   BACKBONE|DICT|INTERRES
    85   44   45 1    
    86   44  110 1    
    87   45   46 1    
    88   45   47 1    
    89   45  111 1    
    90   46  112 1    
    91   46  113 1    
    92   46  114 1    
    93   47   48 2    
    94   47   49 am   BACKBONE|DICT|INTERRES
    95   49   50 1    
    96   49  115 1    
    97   50   51 1    
    98   50   52 1    
    99   50  116 1    
   100   51  117 1    
   101   51  118 1    
   102   51  119 1    
   103   52   53 2    
   104   52   54 am   BACKBONE|DICT|INTERRES
   105   54   55 1    
   106   54  120 1    
   107   55   56 1    
   108   55   57 1    
   109   55  121 1    
   110   56  122 1    
   111   56  123 1    
   112   56  124 1    
   113   57   58 2    
   114   57   59 am   BACKBONE|DICT|INTERRES
   115   59   60 1    
   116   59  125 1    
   117   60   61 1    
   118   60   62 1    
   119   60  126 1    
   120   61  127 1    
   121   61  128 1    
   122   61  129 1    
   123   62   63 2    
   124   62   64 am   BACKBONE|DICT|INTERRES
   125   64   65 1    
   126   64  130 1    
   127   65   66 1    
   128   65   69 1    
   129   65  131 1    
   130   66   67 am   BACKBONE|DICT|INTERRES
   131   66   68 2    
   132   67  132 1    
   133   67  133 1    
   134   69   70 1    
   135   69  134 1    
   136   69  135 1    
   137   70   71 1    
   138   71  136 1    
   139   71  137 1    
@<TRIPOS>SUBSTRUCTURE
     1 UNK         1 GROUP             0       ****    0 ROOT    
