@<TRIPOS>MOLECULE
3R137
137   139    1
SMALL
USER_CHARGES


@<TRIPOS>ATOM
      1 CA         25.6751   -4.4416   -9.3243 C.3       0 UNK        -0.2020 
      2 C          26.2855   -5.0674   -8.0789 C.2       0 UNK         0.4855 
      3 O          26.6645   -6.2387   -8.1023 O.2       0 UNK        -0.5197 
      4 N          26.3760   -4.2989   -6.9908 N.am      1 UNK        -0.4892 
      5 CA         26.8966   -4.7097   -5.6904 C.3       1 UNK         0.0835 
      6 C6         28.4526   -4.7723   -5.6627 C.3       12 UNK        -0.0855 
      7 S7         29.3026   -3.1483   -5.6509 S.3       12 UNK        -0.2931 
      8 C8         30.1188   -3.2123   -4.0266 C.3       12 UNK         0.0378 
      9 C9         30.5437   -1.8299   -3.5606 C.ar      12 UNK        -0.0802 
     10 C10        31.7008   -1.2346   -4.0701 C.ar      12 UNK        -0.0944 
     11 C11        32.1088    0.0253   -3.6191 C.ar      12 UNK        -0.0787 
     12 C12        31.3458    0.6917   -2.6564 C.ar      12 UNK        -0.0862 
     13 C13        30.1844    0.1068   -2.1436 C.ar      12 UNK        -0.0733 
     14 C14        29.7898   -1.1538   -2.5975 C.ar      12 UNK        -0.0832 
     15 C15        29.3670    0.8350   -1.0896 C.3       12 UNK         0.0240 
     16 S16        28.2407    2.0464   -1.8430 S.3       12 UNK        -0.2522 
     17 C17        26.8880    0.9855   -2.4789 C.3       12 UNK        -0.0967 
     18 CA         26.7924    0.7096   -4.0156 C.3       5 UNK         0.0660 
     19 N          25.3992    0.3886   -4.3746 N.am      5 UNK        -0.4015 
     20 C          24.7946    0.3956   -5.5747 C.2       4 UNK         0.4946 
     21 O          25.3037    0.8203   -6.6106 O.2       4 UNK        -0.5353 
     22 CA         23.3700   -0.1818   -5.6275 C.3       4 UNK         0.0277 
     23 CB         22.9489   -0.5973   -7.0509 C.3       4 UNK        -0.1981 
     24 N          23.2602   -1.3361   -4.7368 N.am      4 UNK        -0.4209 
     25 C          22.2327   -1.5897   -3.9150 C.2       3 UNK         0.4942 
     26 O          21.2282   -0.8809   -3.8409 O.2       3 UNK        -0.5208 
     27 CA         22.3276   -2.8388   -3.0134 C.3       3 UNK         0.0250 
     28 CB         21.4693   -3.9780   -3.5876 C.3       3 UNK        -0.1990 
     29 N          23.6929   -3.3312   -2.8030 N.am      3 UNK        -0.4232 
     30 C          24.6698   -2.6553   -2.1826 C.2       2 UNK         0.4993 
     31 O          24.5157   -1.5486   -1.6654 O.2       2 UNK        -0.5286 
     32 CA         26.0738   -3.2859   -2.1920 C.3       2 UNK         0.0209 
     33 CB         26.3181   -4.0805   -0.8996 C.3       2 UNK        -0.1931 
     34 N          26.3919   -4.1316   -3.3534 N.am      2 UNK        -0.4546 
     35 C          26.3022   -3.7558   -4.6380 C.2       1 UNK         0.5154 
     36 O          25.7885   -2.6944   -5.0052 O.2       1 UNK        -0.5181 
     37 C          27.4625    1.7807   -4.9086 C.2       5 UNK         0.5014 
     38 O          28.4159    1.4704   -5.6267 O.2       5 UNK        -0.5248 
     39 N          26.9312    3.0104   -4.8612 N.am      6 UNK        -0.4434 
     40 CA         27.4830    4.1782   -5.5527 C.3       6 UNK         0.0363 
     41 CB         26.8543    5.4519   -4.9646 C.3       6 UNK        -0.1936 
     42 C          27.3116    4.1534   -7.0818 C.2       6 UNK         0.5081 
     43 O          28.0898    4.8069   -7.7772 O.2       6 UNK        -0.5248 
     44 N          26.3026    3.4281   -7.5813 N.am      7 UNK        -0.4718 
     45 CA         26.0489    3.2567   -9.0129 C.3       7 UNK         0.0273 
     46 CB         24.5469    3.0258   -9.2462 C.3       7 UNK        -0.1935 
     47 C          26.8752    2.0977   -9.5884 C.2       7 UNK         0.5018 
     48 O          27.3810    2.2124  -10.7053 O.2       7 UNK        -0.5186 
     49 N          26.9921    1.0094   -8.8156 N.am      8 UNK        -0.4240 
     50 CA         27.7706   -0.1831   -9.1387 C.3       8 UNK         0.0235 
     51 CB         27.4149   -1.3024   -8.1494 C.3       8 UNK        -0.2000 
     52 C          29.2792    0.1006   -9.1466 C.2       8 UNK         0.4941 
     53 O          29.9314   -0.1705  -10.1555 O.2       8 UNK        -0.5273 
     54 N          29.7858    0.6622   -8.0357 N.am      9 UNK        -0.4262 
     55 CA         31.1549    1.1498   -7.8260 C.3       9 UNK         0.0264 
     56 CB         31.3367    2.5037   -8.5421 C.3       9 UNK        -0.1955 
     57 C          32.2574    0.1318   -8.1897 C.2       9 UNK         0.5031 
     58 O          33.2467    0.4960   -8.8310 O.2       9 UNK        -0.5390 
     59 N          32.0809   -1.1278   -7.7589 N.am      10 UNK        -0.4204 
     60 CA         32.9563   -2.2693   -8.0751 C.3       10 UNK         0.0237 
     61 CB         32.3217   -3.5614   -7.5360 C.3       10 UNK        -0.1985 
     62 C          34.4189   -2.1450   -7.5975 C.2       10 UNK         0.4970 
     63 O          35.2610   -2.9307   -8.0339 O.2       10 UNK        -0.4914 
     64 N          34.6969   -1.1651   -6.7305 N.am      11 UNK        -0.4285 
     65 CA         36.0367   -0.7568   -6.2839 C.3       11 UNK         0.1007 
     66 C          36.9362   -0.1868   -7.4200 C.2       11 UNK         0.5703 
     67 N          36.3780    0.3002   -8.5242 N.am      11 UNK        -0.7361 
     68 O          38.1583   -0.1870   -7.2936 O.2       11 UNK        -0.4986 
     69 C69        35.9679    0.2571   -5.1077 C.3       12 UNK        -0.0947 
     70 S70        34.8614   -0.2686   -3.7558 S.3       12 UNK        -0.2240 
     71 C71        33.3617    0.6715   -4.1870 C.3       12 UNK         0.0194 
     72 H72        26.4532   -4.2300  -10.0573 H         1 UNK         0.0906 
     73 H73        24.9571   -5.1254   -9.7765 H         1 UNK         0.0906 
     74 H74        25.1541   -3.5115   -9.0987 H         1 UNK         0.0906 
     75 H75        26.0202   -3.3502   -6.9804 H         1 UNK         0.3140 
     76 H76        26.5028   -5.7061   -5.4769 H         1 UNK         0.1085 
     77 H77        28.7745   -5.3549   -4.7984 H         1 UNK         0.0836 
     78 H78        28.8176   -5.3330   -6.5244 H         1 UNK         0.0836 
     79 H79        29.4440   -3.6574   -3.2938 H         1 UNK         0.0731 
     80 H80        30.9876   -3.8697   -4.0844 H         1 UNK         0.0731 
     81 H81        32.2911   -1.7576   -4.8088 H         1 UNK         0.1312 
     82 H82        31.6507    1.6685   -2.3063 H         1 UNK         0.1406 
     83 H83        28.9000   -1.6121   -2.1934 H         1 UNK         0.1631 
     84 H84        28.8038    0.1318   -0.4740 H         1 UNK         0.0717 
     85 H85        30.0386    1.3599   -0.4085 H         1 UNK         0.0717 
     86 H86        26.8913    0.0381   -1.9394 H         1 UNK         0.0934 
     87 H87        25.9737    1.4822   -2.1486 H         1 UNK         0.0934 
     88 H88        27.3533   -0.2077   -4.2072 H         1 UNK         0.0739 
     89 H89        24.8528    0.0104   -3.6131 H         1 UNK         0.3093 
     90 H90        22.7056    0.6163   -5.2900 H         1 UNK         0.0818 
     91 H91        21.9386   -1.0062   -7.0622 H         1 UNK         0.0819 
     92 H92        22.9576    0.2562   -7.7293 H         1 UNK         0.0819 
     93 H93        23.6213   -1.3509   -7.4626 H         1 UNK         0.0819 
     94 H94        24.0677   -1.9572   -4.7345 H         1 UNK         0.3041 
     95 H95        21.9226   -2.5621   -2.0377 H         1 UNK         0.0784 
     96 H96        20.4357   -3.6570   -3.7261 H         1 UNK         0.0793 
     97 H97        21.8390   -4.3120   -4.5581 H         1 UNK         0.0793 
     98 H98        21.4511   -4.8388   -2.9188 H         1 UNK         0.0793 
     99 H99        23.9200   -4.2290   -3.2050 H         1 UNK         0.3024 
    100 H100       26.7754   -2.4519   -2.2130 H         1 UNK         0.1171 
    101 H101       26.1123   -3.4696   -0.0191 H         1 UNK         0.0786 
    102 H102       27.3545   -4.4106   -0.8249 H         1 UNK         0.0786 
    103 H103       25.6783   -4.9620   -0.8412 H         1 UNK         0.0786 
    104 H104       26.8041   -5.0300   -3.1446 H         1 UNK         0.2977 
    105 H105       26.1362    3.1690   -4.2598 H         1 UNK         0.3127 
    106 H106       28.5562    4.2063   -5.3510 H         1 UNK         0.0770 
    107 H107       25.7745    5.4764   -5.1163 H         1 UNK         0.0814 
    108 H108       27.2693    6.3446   -5.4348 H         1 UNK         0.0814 
    109 H109       27.0475    5.5330   -3.8947 H         1 UNK         0.0814 
    110 H110       25.7627    2.8454   -6.9517 H         1 UNK         0.2983 
    111 H111       26.3349    4.1676   -9.5441 H         1 UNK         0.0947 
    112 H112       24.3312    2.9149  -10.3097 H         1 UNK         0.0806 
    113 H113       23.9558    3.8658   -8.8813 H         1 UNK         0.0806 
    114 H114       24.1923    2.1243   -8.7465 H         1 UNK         0.0806 
    115 H115       26.4871    0.9956   -7.9298 H         1 UNK         0.3000 
    116 H116       27.4842   -0.5100  -10.1406 H         1 UNK         0.0850 
    117 H117       27.9739   -2.2126   -8.3706 H         1 UNK         0.0810 
    118 H118       26.3538   -1.5431   -8.2007 H         1 UNK         0.0810 
    119 H119       27.6362   -1.0215   -7.1185 H         1 UNK         0.0810 
    120 H120       29.1522    0.8400   -7.2570 H         1 UNK         0.3040 
    121 H121       31.2474    1.3299   -6.7538 H         1 UNK         0.0766 
    122 H122       32.3084    2.9435   -8.3139 H         1 UNK         0.0812 
    123 H123       30.5762    3.2206   -8.2315 H         1 UNK         0.0812 
    124 H124       31.2717    2.3957   -9.6255 H         1 UNK         0.0812 
    125 H125       31.2337   -1.3384   -7.2488 H         1 UNK         0.3205 
    126 H126       32.9938   -2.3441   -9.1638 H         1 UNK         0.0754 
    127 H127       32.9117   -4.4350   -7.8167 H         1 UNK         0.0769 
    128 H128       31.3195   -3.7110   -7.9384 H         1 UNK         0.0769 
    129 H129       32.2521   -3.5549   -6.4482 H         1 UNK         0.0769 
    130 H130       33.9401   -0.5703   -6.4377 H         1 UNK         0.2981 
    131 H131       36.5322   -1.6575   -5.9171 H         1 UNK         0.0541 
    132 H132       35.3703    0.3174   -8.6310 H         1 UNK         0.3459 
    133 H133       36.9673    0.6659   -9.2549 H         1 UNK         0.3459 
    134 H134       35.6525    1.2408   -5.4616 H         1 UNK         0.0612 
    135 H135       36.9624    0.3991   -4.6807 H         1 UNK         0.0612 
    136 H136       33.2549    0.7412   -5.2689 H         1 UNK         0.0624 
    137 H137       33.4743    1.6950   -3.8259 H         1 UNK         0.0624 
@<TRIPOS>BOND
     1    1    2 1    
     2    1   72 1    
     3    1   73 1    
     4    1   74 1    
     5    2    3 2    
     6    2    4 am   BACKBONE|DICT|INTERRES
     7    4    5 1    
     8    4   75 1    
     9    5    6 1    
    10    5   35 1    
    11    5   76 1    
    12    6    7 1    
    13    6   77 1    
    14    6   78 1    
    15    7    8 1    
    16    8    9 1    
    17    8   79 1    
    18    8   80 1    
    19    9   10 ar   
    20    9   14 ar   
    21   10   11 ar   
    22   10   81 1    
    23   11   12 ar   
    24   11   71 1    
    25   12   13 ar   
    26   12   82 1    
    27   13   14 ar   
    28   13   15 1    
    29   14   83 1    
    30   15   16 1    
    31   15   84 1    
    32   15   85 1    
    33   16   17 1    
    34   17   18 1    
    35   17   86 1    
    36   17   87 1    
    37   18   19 1    
    38   18   37 1    
    39   18   88 1    
    40   19   20 am   BACKBONE|DICT|INTERRES
    41   19   89 1    
    42   20   21 2    
    43   20   22 1    
    44   22   23 1    
    45   22   24 1    
    46   22   90 1    
    47   23   91 1    
    48   23   92 1    
    49   23   93 1    
    50   24   25 am   BACKBONE|DICT|INTERRES
    51   24   94 1    
    52   25   26 2    
    53   25   27 1    
    54   27   28 1    
    55   27   29 1    
    56   27   95 1    
    57   28   96 1    
    58   28   97 1    
    59   28   98 1    
    60   29   30 am   BACKBONE|DICT|INTERRES
    61   29   99 1    
    62   30   31 2    
    63   30   32 1    
    64   32   33 1    
    65   32   34 1    
    66   32  100 1    
    67   33  101 1    
    68   33  102 1    
    69   33  103 1    
    70   34   35 am   BACKBONE|DICT|INTERRES
    71   34  104 1    
    72   35   36 2    
    73   37   38 2    
    74   37   39 am   BACKBONE|DICT|INTERRES
    75   39   40 1    
    76   39  105 1    
    77   40   41 1    
    78   40   42 1    
    79   40  106 1    
    80   41  107 1    
    81   41  108 1    
    82   41  109 1    
    83   42   43 2    
    84   42   44 am   BACKBONE|DICT|INTERRES
    85   44   45 1    
    86   44  110 1    
    87   45   46 1    
    88   45   47 1    
    89   45  111 1    
    90   46  112 1    
    91   46  113 1    
    92   46  114 1    
    93   47   48 2    
    94   47   49 am   BACKBONE|DICT|INTERRES
    95   49   50 1    
    96   49  115 1    
    97   50   51 1    
    98   50   52 1    
    99   50  116 1    
   100   51  117 1    
   101   51  118 1    
   102   51  119 1    
   103   52   53 2    
   104   52   54 am   BACKBONE|DICT|INTERRES
   105   54   55 1    
   106   54  120 1    
   107   55   56 1    
   108   55   57 1    
   109   55  121 1    
   110   56  122 1    
   111   56  123 1    
   112   56  124 1    
   113   57   58 2    
   114   57   59 am   BACKBONE|DICT|INTERRES
   115   59   60 1    
   116   59  125 1    
   117   60   61 1    
   118   60   62 1    
   119   60  126 1    
   120   61  127 1    
   121   61  128 1    
   122   61  129 1    
   123   62   63 2    
   124   62   64 am   BACKBONE|DICT|INTERRES
   125   64   65 1    
   126   64  130 1    
   127   65   66 1    
   128   65   69 1    
   129   65  131 1    
   130   66   67 am   BACKBONE|DICT|INTERRES
   131   66   68 2    
   132   67  132 1    
   133   67  133 1    
   134   69   70 1    
   135   69  134 1    
   136   69  135 1    
   137   70   71 1    
   138   71  136 1    
   139   71  137 1    
@<TRIPOS>SUBSTRUCTURE
     1 UNK         1 GROUP             0       ****    0 ROOT    
