@<TRIPOS>MOLECULE
3R137
137   139    1
SMALL
USER_CHARGES


@<TRIPOS>ATOM
      1 CA         25.5626   -6.2566   -5.5837 C.3       0 UNK        -0.2020 
      2 C          25.6627   -5.5885   -4.2211 C.2       0 UNK         0.4855 
      3 O          24.6575   -5.1033   -3.7011 O.2       0 UNK        -0.5197 
      4 N          26.8723   -5.5464   -3.6467 N.am      1 UNK        -0.4892 
      5 CA         27.1970   -4.9122   -2.3636 C.3       1 UNK         0.0835 
      6 C6         28.6731   -5.1846   -1.9886 C.3       12 UNK        -0.0855 
      7 S7         29.0587   -4.7525   -0.2593 S.3       12 UNK        -0.2931 
      8 C8         30.8403   -4.3855   -0.3732 C.3       12 UNK         0.0378 
      9 C9         31.1271   -3.1290   -1.1860 C.ar      12 UNK        -0.0802 
     10 C10        31.7941   -3.2132   -2.4118 C.ar      12 UNK        -0.0944 
     11 C11        32.0909   -2.0626   -3.1502 C.ar      12 UNK        -0.0787 
     12 C12        31.6951   -0.8150   -2.6474 C.ar      12 UNK        -0.0862 
     13 C13        31.0191   -0.7156   -1.4253 C.ar      12 UNK        -0.0733 
     14 C14        30.7453   -1.8775   -0.6989 C.ar      12 UNK        -0.0832 
     15 C15        30.5885    0.6361   -0.8602 C.3       12 UNK         0.0240 
     16 S16        29.8409    1.7648   -2.0844 S.3       12 UNK        -0.2522 
     17 C17        28.5246    0.7399   -2.8247 C.3       12 UNK        -0.0967 
     18 CA         28.6262    0.7266   -4.3729 C.3       5 UNK         0.0660 
     19 N          28.1643   -0.5418   -4.9360 N.am      5 UNK        -0.4015 
     20 C          28.3032   -0.9386   -6.2096 C.2       4 UNK         0.4946 
     21 O          28.9027   -0.3064   -7.0806 O.2       4 UNK        -0.5353 
     22 CA         27.6419   -2.2751   -6.5769 C.3       4 UNK         0.0277 
     23 CB         28.5565   -3.4583   -6.2137 C.3       4 UNK        -0.1981 
     24 N          26.3449   -2.4194   -5.9129 N.am      4 UNK        -0.4209 
     25 C          25.2129   -1.8412   -6.3428 C.2       3 UNK         0.4942 
     26 O          25.1148   -1.2533   -7.4190 O.2       3 UNK        -0.5208 
     27 CA         23.9812   -1.9103   -5.4209 C.3       3 UNK         0.0250 
     28 CB         23.0037   -2.9978   -5.8947 C.3       3 UNK        -0.1990 
     29 N          24.3234   -2.1331   -4.0126 N.am      3 UNK        -0.4232 
     30 C          24.8554   -1.1947   -3.2142 C.2       2 UNK         0.4993 
     31 O          25.0906   -0.0444   -3.5803 O.2       2 UNK        -0.5286 
     32 CA         25.2618   -1.6233   -1.7921 C.3       2 UNK         0.0209 
     33 CB         24.0740   -1.4891   -0.8268 C.3       2 UNK        -0.1931 
     34 N          25.7983   -2.9868   -1.7277 N.am      2 UNK        -0.4546 
     35 C          26.8725   -3.4042   -2.4114 C.2       1 UNK         0.5154 
     36 O          27.5421   -2.6601   -3.1297 O.2       1 UNK        -0.5181 
     37 C          27.8994    1.9446   -4.9781 C.2       5 UNK         0.5014 
     38 O          28.5494    2.9560   -5.2472 O.2       5 UNK        -0.5248 
     39 N          26.5740    1.8337   -5.1681 N.am      6 UNK        -0.4434 
     40 CA         25.6854    2.8562   -5.7323 C.3       6 UNK         0.0363 
     41 CB         24.2706    2.2726   -5.8831 C.3       6 UNK        -0.1936 
     42 C          26.1949    3.3963   -7.0783 C.2       6 UNK         0.5081 
     43 O          26.2494    2.6455   -8.0524 O.2       6 UNK        -0.5248 
     44 N          26.6277    4.6665   -7.0807 N.am      7 UNK        -0.4718 
     45 CA         27.2772    5.3817   -8.1921 C.3       7 UNK         0.0273 
     46 CB         26.2624    5.6422   -9.3258 C.3       7 UNK        -0.1935 
     47 C          28.5679    4.7067   -8.7120 C.2       7 UNK         0.5018 
     48 O          28.9765    4.9749   -9.8430 O.2       7 UNK        -0.5186 
     49 N          29.1686    3.8298   -7.8904 N.am      8 UNK        -0.4240 
     50 CA         30.2835    2.9276   -8.1922 C.3       8 UNK         0.0235 
     51 CB         31.5853    3.7297   -8.3949 C.3       8 UNK        -0.2000 
     52 C          29.9900    1.9493   -9.3503 C.2       8 UNK         0.4941 
     53 O          30.9340    1.5015  -10.0074 O.2       8 UNK        -0.5273 
     54 N          28.7046    1.6158   -9.5674 N.am      9 UNK        -0.4262 
     55 CA         28.1793    0.8205  -10.6863 C.3       9 UNK         0.0264 
     56 CB         26.6650    0.6263  -10.5114 C.3       9 UNK        -0.1955 
     57 C          28.8615   -0.5373  -10.9213 C.2       9 UNK         0.5031 
     58 O          28.9493   -0.9663  -12.0734 O.2       9 UNK        -0.5390 
     59 N          29.3591   -1.1676   -9.8521 N.am      10 UNK        -0.4204 
     60 CA         30.2456   -2.3273   -9.9267 C.3       10 UNK         0.0237 
     61 CB         29.4378   -3.6385   -9.8623 C.3       10 UNK        -0.1985 
     62 C          31.3583   -2.2084   -8.8751 C.2       10 UNK         0.4970 
     63 O          31.7215   -3.2064   -8.2513 O.2       10 UNK        -0.4914 
     64 N          31.8839   -0.9882   -8.7073 N.am      11 UNK        -0.4285 
     65 CA         33.0141   -0.6722   -7.8238 C.3       11 UNK         0.1007 
     66 C          34.0539    0.2876   -8.4707 C.2       11 UNK         0.5703 
     67 N          33.7431    0.9856   -9.5576 N.am      11 UNK        -0.7361 
     68 O          35.1855    0.3752   -8.0011 O.2       11 UNK        -0.4986 
     69 C69        32.5359   -0.1955   -6.4221 C.3       12 UNK        -0.0947 
     70 S70        33.6745   -0.7261   -5.0994 S.3       12 UNK        -0.2240 
     71 C71        32.8394   -2.2272   -4.4754 C.3       12 UNK         0.0194 
     72 H72        25.3926   -5.5087   -6.3576 H         1 UNK         0.0906 
     73 H73        26.4694   -6.8060   -5.8355 H         1 UNK         0.0906 
     74 H74        24.7289   -6.9581   -5.5976 H         1 UNK         0.0906 
     75 H75        27.6565   -5.9554   -4.1344 H         1 UNK         0.3140 
     76 H76        26.5638   -5.3804   -1.6067 H         1 UNK         0.1085 
     77 H77        29.3421   -4.6569   -2.6704 H         1 UNK         0.0836 
     78 H78        28.8990   -6.2453   -2.1096 H         1 UNK         0.0836 
     79 H79        31.3573   -5.2496   -0.7936 H         1 UNK         0.0731 
     80 H80        31.2372   -4.2545    0.6345 H         1 UNK         0.0731 
     81 H81        32.0935   -4.1811   -2.7905 H         1 UNK         0.1312 
     82 H82        31.9054    0.0880   -3.2016 H         1 UNK         0.1406 
     83 H83        30.2297   -1.8142    0.2501 H         1 UNK         0.1631 
     84 H84        31.4597    1.1243   -0.4221 H         1 UNK         0.0717 
     85 H85        29.8718    0.4998   -0.0487 H         1 UNK         0.0717 
     86 H86        28.6073   -0.2742   -2.4329 H         1 UNK         0.0934 
     87 H87        27.5519    1.0964   -2.4790 H         1 UNK         0.0934 
     88 H88        29.6782    0.8041   -4.6575 H         1 UNK         0.0739 
     89 H89        27.7478   -1.1963   -4.2790 H         1 UNK         0.3093 
     90 H90        27.4858   -2.2820   -7.6575 H         1 UNK         0.0818 
     91 H91        28.7517   -3.5244   -5.1449 H         1 UNK         0.0819 
     92 H92        28.1259   -4.4061   -6.5360 H         1 UNK         0.0819 
     93 H93        29.5280   -3.3615   -6.6972 H         1 UNK         0.0819 
     94 H94        26.3535   -2.8427   -4.9949 H         1 UNK         0.3041 
     95 H95        23.4699   -0.9478   -5.4955 H         1 UNK         0.0784 
     96 H96        22.6920   -2.8184   -6.9246 H         1 UNK         0.0793 
     97 H97        23.4499   -3.9911   -5.8598 H         1 UNK         0.0793 
     98 H98        22.1018   -3.0141   -5.2826 H         1 UNK         0.0793 
     99 H99        24.2158   -3.0796   -3.6598 H         1 UNK         0.3024 
    100 H100       26.0504   -0.9432   -1.4625 H         1 UNK         0.1171 
    101 H101       24.3720   -1.6984    0.2009 H         1 UNK         0.0786 
    102 H102       23.6699   -0.4758   -0.8448 H         1 UNK         0.0786 
    103 H103       23.2616   -2.1689   -1.0871 H         1 UNK         0.0786 
    104 H104       25.2682   -3.6600   -1.1926 H         1 UNK         0.2977 
    105 H105       26.1144    0.9926   -4.8290 H         1 UNK         0.3127 
    106 H106       25.6382    3.6780   -5.0153 H         1 UNK         0.0770 
    107 H107       24.2658    1.3972   -6.5341 H         1 UNK         0.0814 
    108 H108       23.5892    3.0055   -6.3169 H         1 UNK         0.0814 
    109 H109       23.8562    1.9770   -4.9194 H         1 UNK         0.0814 
    110 H110       26.5786    5.1806   -6.2112 H         1 UNK         0.2983 
    111 H111       27.5874    6.3496   -7.7951 H         1 UNK         0.0947 
    112 H112       26.6855    6.2941  -10.0910 H         1 UNK         0.0806 
    113 H113       25.3631    6.1300   -8.9500 H         1 UNK         0.0806 
    114 H114       25.9615    4.7168   -9.8184 H         1 UNK         0.0806 
    115 H115       28.7577    3.6867   -6.9695 H         1 UNK         0.3000 
    116 H116       30.4113    2.3054   -7.3049 H         1 UNK         0.0850 
    117 H117       32.4536    3.0728   -8.4095 H         1 UNK         0.0810 
    118 H118       31.7414    4.4440   -7.5866 H         1 UNK         0.0810 
    119 H119       31.5772    4.2820   -9.3350 H         1 UNK         0.0810 
    120 H120       28.0015    2.0052   -8.9458 H         1 UNK         0.3040 
    121 H121       28.3412    1.4130  -11.5886 H         1 UNK         0.0766 
    122 H122       26.1390    1.5808  -10.5301 H         1 UNK         0.0812 
    123 H123       26.4305    0.1334   -9.5664 H         1 UNK         0.0812 
    124 H124       26.2485    0.0147  -11.3130 H         1 UNK         0.0812 
    125 H125       29.2348   -0.7470   -8.9312 H         1 UNK         0.3205 
    126 H126       30.7701   -2.3162  -10.8847 H         1 UNK         0.0754 
    127 H127       30.0934   -4.5085   -9.9158 H         1 UNK         0.0769 
    128 H128       28.7422   -3.7103  -10.6985 H         1 UNK         0.0769 
    129 H129       28.8594   -3.7203   -8.9457 H         1 UNK         0.0769 
    130 H130       31.5314   -0.2178   -9.2659 H         1 UNK         0.2981 
    131 H131       33.5721   -1.6011   -7.6902 H         1 UNK         0.0541 
    132 H132       34.4492    1.5763   -9.9665 H         1 UNK         0.3459 
    133 H133       32.7960    1.0235   -9.9176 H         1 UNK         0.3459 
    134 H134       32.4296    0.8901   -6.3879 H         1 UNK         0.0612 
    135 H135       31.5436   -0.5881   -6.1949 H         1 UNK         0.0612 
    136 H136       33.6095   -2.9897   -4.3498 H         1 UNK         0.0624 
    137 H137       32.1527   -2.6157   -5.2290 H         1 UNK         0.0624 
@<TRIPOS>BOND
     1    1    2 1    
     2    1   72 1    
     3    1   73 1    
     4    1   74 1    
     5    2    3 2    
     6    2    4 am   BACKBONE|DICT|INTERRES
     7    4    5 1    
     8    4   75 1    
     9    5    6 1    
    10    5   35 1    
    11    5   76 1    
    12    6    7 1    
    13    6   77 1    
    14    6   78 1    
    15    7    8 1    
    16    8    9 1    
    17    8   79 1    
    18    8   80 1    
    19    9   10 ar   
    20    9   14 ar   
    21   10   11 ar   
    22   10   81 1    
    23   11   12 ar   
    24   11   71 1    
    25   12   13 ar   
    26   12   82 1    
    27   13   14 ar   
    28   13   15 1    
    29   14   83 1    
    30   15   16 1    
    31   15   84 1    
    32   15   85 1    
    33   16   17 1    
    34   17   18 1    
    35   17   86 1    
    36   17   87 1    
    37   18   19 1    
    38   18   37 1    
    39   18   88 1    
    40   19   20 am   BACKBONE|DICT|INTERRES
    41   19   89 1    
    42   20   21 2    
    43   20   22 1    
    44   22   23 1    
    45   22   24 1    
    46   22   90 1    
    47   23   91 1    
    48   23   92 1    
    49   23   93 1    
    50   24   25 am   BACKBONE|DICT|INTERRES
    51   24   94 1    
    52   25   26 2    
    53   25   27 1    
    54   27   28 1    
    55   27   29 1    
    56   27   95 1    
    57   28   96 1    
    58   28   97 1    
    59   28   98 1    
    60   29   30 am   BACKBONE|DICT|INTERRES
    61   29   99 1    
    62   30   31 2    
    63   30   32 1    
    64   32   33 1    
    65   32   34 1    
    66   32  100 1    
    67   33  101 1    
    68   33  102 1    
    69   33  103 1    
    70   34   35 am   BACKBONE|DICT|INTERRES
    71   34  104 1    
    72   35   36 2    
    73   37   38 2    
    74   37   39 am   BACKBONE|DICT|INTERRES
    75   39   40 1    
    76   39  105 1    
    77   40   41 1    
    78   40   42 1    
    79   40  106 1    
    80   41  107 1    
    81   41  108 1    
    82   41  109 1    
    83   42   43 2    
    84   42   44 am   BACKBONE|DICT|INTERRES
    85   44   45 1    
    86   44  110 1    
    87   45   46 1    
    88   45   47 1    
    89   45  111 1    
    90   46  112 1    
    91   46  113 1    
    92   46  114 1    
    93   47   48 2    
    94   47   49 am   BACKBONE|DICT|INTERRES
    95   49   50 1    
    96   49  115 1    
    97   50   51 1    
    98   50   52 1    
    99   50  116 1    
   100   51  117 1    
   101   51  118 1    
   102   51  119 1    
   103   52   53 2    
   104   52   54 am   BACKBONE|DICT|INTERRES
   105   54   55 1    
   106   54  120 1    
   107   55   56 1    
   108   55   57 1    
   109   55  121 1    
   110   56  122 1    
   111   56  123 1    
   112   56  124 1    
   113   57   58 2    
   114   57   59 am   BACKBONE|DICT|INTERRES
   115   59   60 1    
   116   59  125 1    
   117   60   61 1    
   118   60   62 1    
   119   60  126 1    
   120   61  127 1    
   121   61  128 1    
   122   61  129 1    
   123   62   63 2    
   124   62   64 am   BACKBONE|DICT|INTERRES
   125   64   65 1    
   126   64  130 1    
   127   65   66 1    
   128   65   69 1    
   129   65  131 1    
   130   66   67 am   BACKBONE|DICT|INTERRES
   131   66   68 2    
   132   67  132 1    
   133   67  133 1    
   134   69   70 1    
   135   69  134 1    
   136   69  135 1    
   137   70   71 1    
   138   71  136 1    
   139   71  137 1    
@<TRIPOS>SUBSTRUCTURE
     1 UNK         1 GROUP             0       ****    0 ROOT    
