@<TRIPOS>MOLECULE
3R137
137   139    1
SMALL
USER_CHARGES


@<TRIPOS>ATOM
      1 CA         28.9387   -5.2051    1.0059 C.3       0 UNK        -0.2020 
      2 C          28.3119   -4.0876    0.1868 C.2       0 UNK         0.4855 
      3 O          28.1425   -4.2446   -1.0221 O.2       0 UNK        -0.5197 
      4 N          27.9689   -2.9679    0.8397 N.am      1 UNK        -0.4892 
      5 CA         27.3707   -1.7331    0.3017 C.3       1 UNK         0.0835 
      6 C6         28.2331   -1.0134   -0.7685 C.3       12 UNK        -0.0855 
      7 S7         29.8357   -0.4150   -0.1323 S.3       12 UNK        -0.2931 
      8 C8         31.0257   -1.6098   -0.8265 C.3       12 UNK         0.0378 
      9 C9         30.9492   -1.7179   -2.3447 C.ar      12 UNK        -0.0802 
     10 C10        31.2845   -0.6304   -3.1562 C.ar      12 UNK        -0.0944 
     11 C11        31.2293   -0.7422   -4.5489 C.ar      12 UNK        -0.0787 
     12 C12        30.8274   -1.9499   -5.1280 C.ar      12 UNK        -0.0862 
     13 C13        30.4785   -3.0435   -4.3278 C.ar      12 UNK        -0.0733 
     14 C14        30.5521   -2.9192   -2.9384 C.ar      12 UNK        -0.0832 
     15 C15        30.0581   -4.3812   -4.9321 C.3       12 UNK         0.0240 
     16 S16        28.9942   -4.2472   -6.4068 S.3       12 UNK        -0.2522 
     17 C17        27.4794   -3.4907   -5.7269 C.3       12 UNK        -0.0967 
     18 CA         26.9142   -2.4088   -6.6818 C.3       5 UNK         0.0660 
     19 N          25.4627   -2.2691   -6.5628 N.am      5 UNK        -0.4015 
     20 C          24.6614   -1.8509   -7.5537 C.2       4 UNK         0.4946 
     21 O          25.0520   -1.6070   -8.6957 O.2       4 UNK        -0.5353 
     22 CA         23.1689   -1.6657   -7.2237 C.3       4 UNK         0.0277 
     23 CB         22.3818   -2.9419   -7.5625 C.3       4 UNK        -0.1981 
     24 N          22.9172   -1.2965   -5.8285 N.am      4 UNK        -0.4209 
     25 C          23.2905   -0.1351   -5.2737 C.2       3 UNK         0.4942 
     26 O          23.8735    0.7601   -5.8823 O.2       3 UNK        -0.5208 
     27 CA         23.0196    0.0321   -3.7703 C.3       3 UNK         0.0250 
     28 CB         21.5848    0.5290   -3.5323 C.3       3 UNK        -0.1990 
     29 N          23.2623   -1.1782   -2.9754 N.am      3 UNK        -0.4232 
     30 C          24.4198   -1.8526   -2.9337 C.2       2 UNK         0.4993 
     31 O          25.3923   -1.6018   -3.6519 O.2       2 UNK        -0.5286 
     32 CA         24.5118   -3.0147   -1.9338 C.3       2 UNK         0.0209 
     33 CB         24.5522   -4.3615   -2.6736 C.3       2 UNK        -0.1931 
     34 N          25.7212   -2.8730   -1.1260 N.am      2 UNK        -0.4546 
     35 C          25.9300   -1.9100   -0.2210 C.2       1 UNK         0.5154 
     36 O          25.0432   -1.1556    0.1830 O.2       1 UNK        -0.5181 
     37 C          27.5959   -1.0416   -6.4959 C.2       5 UNK         0.5014 
     38 O          28.4700   -0.6892   -7.2877 O.2       5 UNK        -0.5248 
     39 N          27.1492   -0.2704   -5.4921 N.am      6 UNK        -0.4434 
     40 CA         27.6167    1.0909   -5.2142 C.3       6 UNK         0.0363 
     41 CB         26.9214    1.6280   -3.9548 C.3       6 UNK        -0.1936 
     42 C          27.4136    2.0509   -6.4001 C.2       6 UNK         0.5081 
     43 O          28.3252    2.8092   -6.7332 O.2       6 UNK        -0.5248 
     44 N          26.2450    1.9573   -7.0514 N.am      7 UNK        -0.4718 
     45 CA         25.8636    2.7293   -8.2383 C.3       7 UNK         0.0273 
     46 CB         24.3885    2.4489   -8.5691 C.3       7 UNK        -0.1935 
     47 C          26.7404    2.4895   -9.4818 C.2       7 UNK         0.5018 
     48 O          26.7133    3.3220  -10.3894 O.2       7 UNK        -0.5186 
     49 N          27.5041    1.3862   -9.5167 N.am      8 UNK        -0.4240 
     50 CA         28.4581    1.0913  -10.5892 C.3       8 UNK         0.0235 
     51 CB         28.8459   -0.3958  -10.5472 C.3       8 UNK        -0.2000 
     52 C          29.7183    1.9735  -10.5350 C.2       8 UNK         0.4941 
     53 O          30.4044    2.0808  -11.5525 O.2       8 UNK        -0.5273 
     54 N          30.0161    2.5684   -9.3666 N.am      9 UNK        -0.4262 
     55 CA         31.1420    3.4585   -9.0377 C.3       9 UNK         0.0264 
     56 CB         31.0947    4.7550   -9.8688 C.3       9 UNK        -0.1955 
     57 C          32.5347    2.8032   -9.1106 C.2       9 UNK         0.5031 
     58 O          33.3388    2.9952   -8.1980 O.2       9 UNK        -0.5390 
     59 N          32.7983    2.0334  -10.1712 N.am      10 UNK        -0.4204 
     60 CA         33.9733    1.1838  -10.3421 C.3       10 UNK         0.0237 
     61 CB         34.1950    0.9334  -11.8450 C.3       10 UNK        -0.1985 
     62 C          33.7649   -0.1195   -9.5547 C.2       10 UNK         0.4970 
     63 O          33.2902   -1.1081  -10.1175 O.2       10 UNK        -0.4914 
     64 N          34.0613   -0.0656   -8.2519 N.am      11 UNK        -0.4285 
     65 CA         33.8780   -1.1588   -7.2877 C.3       11 UNK         0.1007 
     66 C          34.6908   -2.4376   -7.6335 C.2       11 UNK         0.5703 
     67 N          34.1581   -3.6138   -7.3295 N.am      11 UNK        -0.7361 
     68 O          35.8142   -2.3703   -8.1303 O.2       11 UNK        -0.4986 
     69 C69        34.1901   -0.7005   -5.8378 C.3       12 UNK        -0.0947 
     70 S70        33.3733    0.8526   -5.3280 S.3       12 UNK        -0.2240 
     71 C71        31.6017    0.4417   -5.4297 C.3       12 UNK         0.0194 
     72 H72        29.9200   -5.4589    0.6020 H         1 UNK         0.0906 
     73 H73        28.3114   -6.0967    0.9639 H         1 UNK         0.0906 
     74 H74        29.0647   -4.9255    2.0530 H         1 UNK         0.0906 
     75 H75        28.1256   -2.9398    1.8381 H         1 UNK         0.3140 
     76 H76        27.2917   -1.0581    1.1560 H         1 UNK         0.1085 
     77 H77        27.7078   -0.1295   -1.1336 H         1 UNK         0.0836 
     78 H78        28.3738   -1.6462   -1.6448 H         1 UNK         0.0836 
     79 H79        32.0340   -1.3041   -0.5442 H         1 UNK         0.0731 
     80 H80        30.8623   -2.5812   -0.3584 H         1 UNK         0.0731 
     81 H81        31.5943    0.3017   -2.7036 H         1 UNK         0.1312 
     82 H82        30.7771   -2.0350   -6.2045 H         1 UNK         0.1406 
     83 H83        30.2985   -3.7649   -2.3145 H         1 UNK         0.1631 
     84 H84        29.5356   -4.9887   -4.1909 H         1 UNK         0.0717 
     85 H85        30.9583   -4.9336   -5.2038 H         1 UNK         0.0717 
     86 H86        26.7569   -4.2990   -5.6041 H         1 UNK         0.0934 
     87 H87        27.6534   -3.0950   -4.7234 H         1 UNK         0.0934 
     88 H88        27.1206   -2.7295   -7.7059 H         1 UNK         0.0739 
     89 H89        25.0798   -2.3683   -5.6314 H         1 UNK         0.3093 
     90 H90        22.7952   -0.8561   -7.8546 H         1 UNK         0.0818 
     91 H91        22.5309   -3.2261   -8.6053 H         1 UNK         0.0819 
     92 H92        22.6943   -3.7866   -6.9471 H         1 UNK         0.0819 
     93 H93        21.3107   -2.7982   -7.4189 H         1 UNK         0.0819 
     94 H94        22.4435   -1.9751   -5.2500 H         1 UNK         0.3041 
     95 H95        23.7057    0.7974   -3.4026 H         1 UNK         0.0784 
     96 H96        21.3876    1.4385   -4.1019 H         1 UNK         0.0793 
     97 H97        20.8432   -0.2118   -3.8339 H         1 UNK         0.0793 
     98 H98        21.4156    0.7659   -2.4816 H         1 UNK         0.0793 
     99 H99        22.5164   -1.4593   -2.3549 H         1 UNK         0.3024 
    100 H100       23.6453   -2.9994   -1.2691 H         1 UNK         0.1171 
    101 H101       23.6604   -4.5001   -3.2861 H         1 UNK         0.0786 
    102 H102       24.5974   -5.1955   -1.9730 H         1 UNK         0.0786 
    103 H103       25.4182   -4.4341   -3.3331 H         1 UNK         0.0786 
    104 H104       26.5245   -3.4454   -1.3784 H         1 UNK         0.2977 
    105 H105       26.4484   -0.6531   -4.8601 H         1 UNK         0.3127 
    106 H106       28.6866    1.0293   -5.0126 H         1 UNK         0.0770 
    107 H107       27.0791    0.9675   -3.1035 H         1 UNK         0.0814 
    108 H108       27.3118    2.6096   -3.6834 H         1 UNK         0.0814 
    109 H109       25.8464    1.7332   -4.1015 H         1 UNK         0.0814 
    110 H110       25.5298    1.3406   -6.6721 H         1 UNK         0.2983 
    111 H111       25.9618    3.7867   -7.9838 H         1 UNK         0.0947 
    112 H112       24.2171    1.3904   -8.7702 H         1 UNK         0.0806 
    113 H113       24.0677    3.0065   -9.4502 H         1 UNK         0.0806 
    114 H114       23.7353    2.7444   -7.7478 H         1 UNK         0.0806 
    115 H115       27.4925    0.7524   -8.7261 H         1 UNK         0.3000 
    116 H116       27.9641    1.2833  -11.5442 H         1 UNK         0.0850 
    117 H117       29.4300   -0.6677  -11.4274 H         1 UNK         0.0810 
    118 H118       27.9663   -1.0398  -10.5282 H         1 UNK         0.0810 
    119 H119       29.4559   -0.6316   -9.6748 H         1 UNK         0.0810 
    120 H120       29.3838    2.4000   -8.5908 H         1 UNK         0.3040 
    121 H121       30.9882    3.7369   -7.9936 H         1 UNK         0.0766 
    122 H122       31.2455    4.5665  -10.9321 H         1 UNK         0.0812 
    123 H123       31.8734    5.4491   -9.5499 H         1 UNK         0.0812 
    124 H124       30.1382    5.2646   -9.7514 H         1 UNK         0.0812 
    125 H125       32.0509    1.9350  -10.8578 H         1 UNK         0.3205 
    126 H126       34.8556    1.6939   -9.9491 H         1 UNK         0.0754 
    127 H127       35.0499    0.2760  -12.0085 H         1 UNK         0.0769 
    128 H128       34.3958    1.8650  -12.3745 H         1 UNK         0.0769 
    129 H129       33.3272    0.4654  -12.3124 H         1 UNK         0.0769 
    130 H130       34.3854    0.8104   -7.8652 H         1 UNK         0.2981 
    131 H131       32.8224   -1.4284   -7.3380 H         1 UNK         0.0541 
    132 H132       34.6794   -4.4525   -7.5320 H         1 UNK         0.3459 
    133 H133       33.2465   -3.6816   -6.9060 H         1 UNK         0.3459 
    134 H134       35.2644   -0.5487   -5.7163 H         1 UNK         0.0612 
    135 H135       33.9165   -1.4804   -5.1249 H         1 UNK         0.0612 
    136 H136       31.0302    1.3159   -5.1163 H         1 UNK         0.0624 
    137 H137       31.3286    0.2606   -6.4707 H         1 UNK         0.0624 
@<TRIPOS>BOND
     1    1    2 1    
     2    1   72 1    
     3    1   73 1    
     4    1   74 1    
     5    2    3 2    
     6    2    4 am   BACKBONE|DICT|INTERRES
     7    4    5 1    
     8    4   75 1    
     9    5    6 1    
    10    5   35 1    
    11    5   76 1    
    12    6    7 1    
    13    6   77 1    
    14    6   78 1    
    15    7    8 1    
    16    8    9 1    
    17    8   79 1    
    18    8   80 1    
    19    9   10 ar   
    20    9   14 ar   
    21   10   11 ar   
    22   10   81 1    
    23   11   12 ar   
    24   11   71 1    
    25   12   13 ar   
    26   12   82 1    
    27   13   14 ar   
    28   13   15 1    
    29   14   83 1    
    30   15   16 1    
    31   15   84 1    
    32   15   85 1    
    33   16   17 1    
    34   17   18 1    
    35   17   86 1    
    36   17   87 1    
    37   18   19 1    
    38   18   37 1    
    39   18   88 1    
    40   19   20 am   BACKBONE|DICT|INTERRES
    41   19   89 1    
    42   20   21 2    
    43   20   22 1    
    44   22   23 1    
    45   22   24 1    
    46   22   90 1    
    47   23   91 1    
    48   23   92 1    
    49   23   93 1    
    50   24   25 am   BACKBONE|DICT|INTERRES
    51   24   94 1    
    52   25   26 2    
    53   25   27 1    
    54   27   28 1    
    55   27   29 1    
    56   27   95 1    
    57   28   96 1    
    58   28   97 1    
    59   28   98 1    
    60   29   30 am   BACKBONE|DICT|INTERRES
    61   29   99 1    
    62   30   31 2    
    63   30   32 1    
    64   32   33 1    
    65   32   34 1    
    66   32  100 1    
    67   33  101 1    
    68   33  102 1    
    69   33  103 1    
    70   34   35 am   BACKBONE|DICT|INTERRES
    71   34  104 1    
    72   35   36 2    
    73   37   38 2    
    74   37   39 am   BACKBONE|DICT|INTERRES
    75   39   40 1    
    76   39  105 1    
    77   40   41 1    
    78   40   42 1    
    79   40  106 1    
    80   41  107 1    
    81   41  108 1    
    82   41  109 1    
    83   42   43 2    
    84   42   44 am   BACKBONE|DICT|INTERRES
    85   44   45 1    
    86   44  110 1    
    87   45   46 1    
    88   45   47 1    
    89   45  111 1    
    90   46  112 1    
    91   46  113 1    
    92   46  114 1    
    93   47   48 2    
    94   47   49 am   BACKBONE|DICT|INTERRES
    95   49   50 1    
    96   49  115 1    
    97   50   51 1    
    98   50   52 1    
    99   50  116 1    
   100   51  117 1    
   101   51  118 1    
   102   51  119 1    
   103   52   53 2    
   104   52   54 am   BACKBONE|DICT|INTERRES
   105   54   55 1    
   106   54  120 1    
   107   55   56 1    
   108   55   57 1    
   109   55  121 1    
   110   56  122 1    
   111   56  123 1    
   112   56  124 1    
   113   57   58 2    
   114   57   59 am   BACKBONE|DICT|INTERRES
   115   59   60 1    
   116   59  125 1    
   117   60   61 1    
   118   60   62 1    
   119   60  126 1    
   120   61  127 1    
   121   61  128 1    
   122   61  129 1    
   123   62   63 2    
   124   62   64 am   BACKBONE|DICT|INTERRES
   125   64   65 1    
   126   64  130 1    
   127   65   66 1    
   128   65   69 1    
   129   65  131 1    
   130   66   67 am   BACKBONE|DICT|INTERRES
   131   66   68 2    
   132   67  132 1    
   133   67  133 1    
   134   69   70 1    
   135   69  134 1    
   136   69  135 1    
   137   70   71 1    
   138   71  136 1    
   139   71  137 1    
@<TRIPOS>SUBSTRUCTURE
     1 UNK         1 GROUP             0       ****    0 ROOT    
