@<TRIPOS>MOLECULE
3R137
137   139    1
SMALL
USER_CHARGES


@<TRIPOS>ATOM
      1 CA         26.0098   -5.9535   -2.9092 C.3       0 UNK        -0.2020 
      2 C          26.0880   -4.9669   -1.7546 C.2       0 UNK         0.4855 
      3 O          25.8674   -5.3505   -0.6057 O.2       0 UNK        -0.5197 
      4 N          26.3932   -3.6999   -2.0492 N.am      1 UNK        -0.4892 
      5 CA         26.4529   -2.5979   -1.0919 C.3       1 UNK         0.0835 
      6 C6         27.7462   -2.6217   -0.2244 C.3       12 UNK        -0.0855 
      7 S7         29.2843   -2.1625   -1.0990 S.3       12 UNK        -0.2931 
      8 C8         29.9265   -3.7720   -1.6601 C.3       12 UNK         0.0378 
      9 C9         30.3561   -3.7093   -3.1198 C.ar      12 UNK        -0.0802 
     10 C10        31.4769   -2.9608   -3.4909 C.ar      12 UNK        -0.0944 
     11 C11        31.8732   -2.8862   -4.8293 C.ar      12 UNK        -0.0787 
     12 C12        31.1417   -3.5741   -5.8029 C.ar      12 UNK        -0.0862 
     13 C13        30.0277   -4.3424   -5.4458 C.ar      12 UNK        -0.0733 
     14 C14        29.6422   -4.4040   -4.1008 C.ar      12 UNK        -0.0832 
     15 C15        29.2965   -5.1629   -6.5048 C.3       12 UNK         0.0240 
     16 S16        27.4782   -5.0423   -6.3904 S.3       12 UNK        -0.2522 
     17 C17        27.0182   -4.1290   -7.9057 C.3       12 UNK        -0.0967 
     18 CA         26.4930   -2.6963   -7.6428 C.3       5 UNK         0.0660 
     19 N          25.4089   -2.6761   -6.6545 N.am      5 UNK        -0.4015 
     20 C          24.6751   -1.6165   -6.2899 C.2       4 UNK         0.4946 
     21 O          24.9002   -0.4671   -6.6747 O.2       4 UNK        -0.5353 
     22 CA         23.4757   -1.8874   -5.3656 C.3       4 UNK         0.0277 
     23 CB         23.4928   -3.2770   -4.6927 C.3       4 UNK        -0.1981 
     24 N          23.4177   -0.8644   -4.3254 N.am      4 UNK        -0.4209 
     25 C          22.3971   -0.0204   -4.1224 C.2       3 UNK         0.4942 
     26 O          21.3867    0.0092   -4.8274 O.2       3 UNK        -0.5208 
     27 CA         22.4775    0.9322   -2.9125 C.3       3 UNK         0.0250 
     28 CB         21.3279    0.6550   -1.9273 C.3       3 UNK        -0.1990 
     29 N          23.7448    0.8408   -2.1841 N.am      3 UNK        -0.4232 
     30 C          24.8603    1.5077   -2.5044 C.2       2 UNK         0.4993 
     31 O          24.9365    2.3173   -3.4281 O.2       2 UNK        -0.5286 
     32 CA         26.1071    1.2136   -1.6529 C.3       2 UNK         0.0209 
     33 CB         26.2020    2.2094   -0.4853 C.3       2 UNK        -0.1931 
     34 N          26.1881   -0.1563   -1.1248 N.am      2 UNK        -0.4546 
     35 C          26.2237   -1.2791   -1.8585 C.2       1 UNK         0.5154 
     36 O          26.0796   -1.3015   -3.0868 O.2       1 UNK        -0.5181 
     37 C          27.6477   -1.7090   -7.3883 C.2       5 UNK         0.5014 
     38 O          28.2864   -1.2998   -8.3576 O.2       5 UNK        -0.5248 
     39 N          27.8755   -1.2894   -6.1357 N.am      6 UNK        -0.4434 
     40 CA         28.8893   -0.2891   -5.7857 C.3       6 UNK         0.0363 
     41 CB         29.0253   -0.2092   -4.2632 C.3       6 UNK        -0.1936 
     42 C          28.6204    1.1085   -6.3760 C.2       6 UNK         0.5081 
     43 O          29.5548    1.8997   -6.4892 O.2       6 UNK        -0.5248 
     44 N          27.3671    1.3901   -6.7632 N.am      7 UNK        -0.4718 
     45 CA         26.9907    2.6038   -7.4905 C.3       7 UNK         0.0273 
     46 CB         25.4764    2.8249   -7.3466 C.3       7 UNK        -0.1935 
     47 C          27.3911    2.5630   -8.9788 C.2       7 UNK         0.5018 
     48 O          27.4817    3.6248   -9.5967 O.2       7 UNK        -0.5186 
     49 N          27.6013    1.3595   -9.5318 N.am      8 UNK        -0.4240 
     50 CA         27.9699    1.1308  -10.9310 C.3       8 UNK         0.0235 
     51 CB         27.0927    0.0038  -11.5023 C.3       8 UNK        -0.2000 
     52 C          29.4575    0.7770  -11.0843 C.2       8 UNK         0.4941 
     53 O          30.0720    1.1852  -12.0712 O.2       8 UNK        -0.5273 
     54 N          30.0019    0.0101  -10.1301 N.am      9 UNK        -0.4262 
     55 CA         31.3930   -0.4409  -10.0866 C.3       9 UNK         0.0264 
     56 CB         31.5293   -1.5003   -8.9794 C.3       9 UNK        -0.1955 
     57 C          32.3954    0.7041   -9.8598 C.2       9 UNK         0.5031 
     58 O          32.0321    1.7712   -9.3580 O.2       9 UNK        -0.5390 
     59 N          33.6655    0.4285  -10.1884 N.am      10 UNK        -0.4204 
     60 CA         34.8035    1.3508  -10.0803 C.3       10 UNK         0.0237 
     61 CB         36.0506    0.6783  -10.6787 C.3       10 UNK        -0.1985 
     62 C          35.1012    1.8636   -8.6572 C.2       10 UNK         0.4970 
     63 O          35.7779    2.8844   -8.5242 O.2       10 UNK        -0.4914 
     64 N          34.5938    1.1697   -7.6299 N.am      11 UNK        -0.4285 
     65 CA         34.6110    1.6193   -6.2317 C.3       11 UNK         0.1007 
     66 C          33.6979    2.8467   -5.9280 C.2       11 UNK         0.5703 
     67 N          32.7706    3.2242   -6.8014 N.am      11 UNK        -0.7361 
     68 O          33.8507    3.4777   -4.8845 O.2       11 UNK        -0.4986 
     69 C69        34.3636    0.4431   -5.2508 C.3       12 UNK        -0.0947 
     70 S70        32.7099   -0.3193   -5.4007 S.3       12 UNK        -0.2240 
     71 C71        33.1076   -2.0811   -5.2070 C.3       12 UNK         0.0194 
     72 H72        26.0077   -5.4484   -3.8735 H         1 UNK         0.0906 
     73 H73        26.8586   -6.6361   -2.8805 H         1 UNK         0.0906 
     74 H74        25.0958   -6.5426   -2.8394 H         1 UNK         0.0906 
     75 H75        26.5267   -3.3959   -3.0055 H         1 UNK         0.3140 
     76 H76        25.5961   -2.7036   -0.4224 H         1 UNK         0.1085 
     77 H77        27.8733   -3.6002    0.2410 H         1 UNK         0.0836 
     78 H78        27.6350   -1.9307    0.6125 H         1 UNK         0.0836 
     79 H79        30.7784   -4.0527   -1.0394 H         1 UNK         0.0731 
     80 H80        29.1753   -4.5497   -1.5178 H         1 UNK         0.0731 
     81 H81        32.0352   -2.4247   -2.7354 H         1 UNK         0.1312 
     82 H82        31.4562   -3.5295   -6.8361 H         1 UNK         0.1406 
     83 H83        28.7900   -5.0050   -3.8168 H         1 UNK         0.1631 
     84 H84        29.5756   -6.2090   -6.3734 H         1 UNK         0.0717 
     85 H85        29.6327   -4.8876   -7.5049 H         1 UNK         0.0717 
     86 H86        27.8430   -4.1189   -8.6207 H         1 UNK         0.0934 
     87 H87        26.2337   -4.7068   -8.3970 H         1 UNK         0.0934 
     88 H88        26.0364   -2.3556   -8.5747 H         1 UNK         0.0739 
     89 H89        25.1665   -3.5764   -6.2684 H         1 UNK         0.3093 
     90 H90        22.5899   -1.8352   -6.0016 H         1 UNK         0.0818 
     91 H91        24.3891   -3.4252   -4.0913 H         1 UNK         0.0819 
     92 H92        22.6344   -3.3982   -4.0315 H         1 UNK         0.0819 
     93 H93        23.4366   -4.0828   -5.4256 H         1 UNK         0.0819 
     94 H94        24.2549   -0.7761   -3.7586 H         1 UNK         0.3041 
     95 H95        22.3577    1.9483   -3.2950 H         1 UNK         0.0784 
     96 H96        20.3580    0.7660   -2.4142 H         1 UNK         0.0793 
     97 H97        21.3759   -0.3576   -1.5248 H         1 UNK         0.0793 
     98 H98        21.3467    1.3519   -1.0891 H         1 UNK         0.0793 
     99 H99        23.7782    0.1992   -1.4051 H         1 UNK         0.3024 
    100 H100       26.9732    1.3732   -2.2958 H         1 UNK         0.1171 
    101 H101       27.1383    2.0931    0.0610 H         1 UNK         0.0786 
    102 H102       26.1670    3.2387   -0.8456 H         1 UNK         0.0786 
    103 H103       25.3810    2.0838    0.2217 H         1 UNK         0.0786 
    104 H104       26.3102   -0.2348   -0.1253 H         1 UNK         0.2977 
    105 H105       27.2911   -1.6319   -5.3857 H         1 UNK         0.3127 
    106 H106       29.8407   -0.6372   -6.1896 H         1 UNK         0.0770 
    107 H107       28.1250    0.1945   -3.8075 H         1 UNK         0.0814 
    108 H108       29.8585    0.4339   -3.9773 H         1 UNK         0.0814 
    109 H109       29.2109   -1.1920   -3.8358 H         1 UNK         0.0814 
    110 H110       26.6369    0.6972   -6.6249 H         1 UNK         0.2983 
    111 H111       27.5032    3.4547   -7.0360 H         1 UNK         0.0947 
    112 H112       25.1812    2.8822   -6.2983 H         1 UNK         0.0806 
    113 H113       24.9052    2.0200   -7.8109 H         1 UNK         0.0806 
    114 H114       25.1710    3.7579   -7.8220 H         1 UNK         0.0806 
    115 H115       27.5593    0.5407   -8.9363 H         1 UNK         0.3000 
    116 H116       27.7839    2.0312  -11.5206 H         1 UNK         0.0850 
    117 H117       27.3337   -0.1852  -12.5493 H         1 UNK         0.0810 
    118 H118       26.0351    0.2639  -11.4554 H         1 UNK         0.0810 
    119 H119       27.2314   -0.9331  -10.9611 H         1 UNK         0.0810 
    120 H120       29.4015   -0.3333   -9.3836 H         1 UNK         0.3040 
    121 H121       31.6189   -0.9068  -11.0481 H         1 UNK         0.0766 
    122 H122       30.8527   -2.3385   -9.1480 H         1 UNK         0.0812 
    123 H123       31.3002   -1.0818   -7.9995 H         1 UNK         0.0812 
    124 H124       32.5401   -1.9069   -8.9332 H         1 UNK         0.0812 
    125 H125       33.8704   -0.4812  -10.5773 H         1 UNK         0.3205 
    126 H126       34.5651    2.2274  -10.6861 H         1 UNK         0.0754 
    127 H127       35.8945    0.4070  -11.7231 H         1 UNK         0.0769 
    128 H128       36.3232   -0.2254  -10.1321 H         1 UNK         0.0769 
    129 H129       36.9106    1.3492  -10.6478 H         1 UNK         0.0769 
    130 H130       34.0314    0.3559   -7.8235 H         1 UNK         0.2981 
    131 H131       35.6266    1.9686   -6.0358 H         1 UNK         0.0541 
    132 H132       32.5986    2.6890   -7.6464 H         1 UNK         0.3459 
    133 H133       32.1815    4.0107   -6.5831 H         1 UNK         0.3459 
    134 H134       34.4924    0.7746   -4.2190 H         1 UNK         0.0612 
    135 H135       35.1259   -0.3209   -5.4106 H         1 UNK         0.0612 
    136 H136       33.8667   -2.2007   -4.4324 H         1 UNK         0.0624 
    137 H137       33.5462   -2.4557   -6.1331 H         1 UNK         0.0624 
@<TRIPOS>BOND
     1    1    2 1    
     2    1   72 1    
     3    1   73 1    
     4    1   74 1    
     5    2    3 2    
     6    2    4 am   BACKBONE|DICT|INTERRES
     7    4    5 1    
     8    4   75 1    
     9    5    6 1    
    10    5   35 1    
    11    5   76 1    
    12    6    7 1    
    13    6   77 1    
    14    6   78 1    
    15    7    8 1    
    16    8    9 1    
    17    8   79 1    
    18    8   80 1    
    19    9   10 ar   
    20    9   14 ar   
    21   10   11 ar   
    22   10   81 1    
    23   11   12 ar   
    24   11   71 1    
    25   12   13 ar   
    26   12   82 1    
    27   13   14 ar   
    28   13   15 1    
    29   14   83 1    
    30   15   16 1    
    31   15   84 1    
    32   15   85 1    
    33   16   17 1    
    34   17   18 1    
    35   17   86 1    
    36   17   87 1    
    37   18   19 1    
    38   18   37 1    
    39   18   88 1    
    40   19   20 am   BACKBONE|DICT|INTERRES
    41   19   89 1    
    42   20   21 2    
    43   20   22 1    
    44   22   23 1    
    45   22   24 1    
    46   22   90 1    
    47   23   91 1    
    48   23   92 1    
    49   23   93 1    
    50   24   25 am   BACKBONE|DICT|INTERRES
    51   24   94 1    
    52   25   26 2    
    53   25   27 1    
    54   27   28 1    
    55   27   29 1    
    56   27   95 1    
    57   28   96 1    
    58   28   97 1    
    59   28   98 1    
    60   29   30 am   BACKBONE|DICT|INTERRES
    61   29   99 1    
    62   30   31 2    
    63   30   32 1    
    64   32   33 1    
    65   32   34 1    
    66   32  100 1    
    67   33  101 1    
    68   33  102 1    
    69   33  103 1    
    70   34   35 am   BACKBONE|DICT|INTERRES
    71   34  104 1    
    72   35   36 2    
    73   37   38 2    
    74   37   39 am   BACKBONE|DICT|INTERRES
    75   39   40 1    
    76   39  105 1    
    77   40   41 1    
    78   40   42 1    
    79   40  106 1    
    80   41  107 1    
    81   41  108 1    
    82   41  109 1    
    83   42   43 2    
    84   42   44 am   BACKBONE|DICT|INTERRES
    85   44   45 1    
    86   44  110 1    
    87   45   46 1    
    88   45   47 1    
    89   45  111 1    
    90   46  112 1    
    91   46  113 1    
    92   46  114 1    
    93   47   48 2    
    94   47   49 am   BACKBONE|DICT|INTERRES
    95   49   50 1    
    96   49  115 1    
    97   50   51 1    
    98   50   52 1    
    99   50  116 1    
   100   51  117 1    
   101   51  118 1    
   102   51  119 1    
   103   52   53 2    
   104   52   54 am   BACKBONE|DICT|INTERRES
   105   54   55 1    
   106   54  120 1    
   107   55   56 1    
   108   55   57 1    
   109   55  121 1    
   110   56  122 1    
   111   56  123 1    
   112   56  124 1    
   113   57   58 2    
   114   57   59 am   BACKBONE|DICT|INTERRES
   115   59   60 1    
   116   59  125 1    
   117   60   61 1    
   118   60   62 1    
   119   60  126 1    
   120   61  127 1    
   121   61  128 1    
   122   61  129 1    
   123   62   63 2    
   124   62   64 am   BACKBONE|DICT|INTERRES
   125   64   65 1    
   126   64  130 1    
   127   65   66 1    
   128   65   69 1    
   129   65  131 1    
   130   66   67 am   BACKBONE|DICT|INTERRES
   131   66   68 2    
   132   67  132 1    
   133   67  133 1    
   134   69   70 1    
   135   69  134 1    
   136   69  135 1    
   137   70   71 1    
   138   71  136 1    
   139   71  137 1    
@<TRIPOS>SUBSTRUCTURE
     1 UNK         1 GROUP             0       ****    0 ROOT    
