@<TRIPOS>MOLECULE
3R137
137   139    1
SMALL
USER_CHARGES


@<TRIPOS>ATOM
      1 CA         30.0011    1.2488   -0.0291 C.3       0 UNK        -0.2020 
      2 C          30.7264    0.8291   -1.3054 C.2       0 UNK         0.4855 
      3 O          31.6864    1.4965   -1.6856 O.2       0 UNK        -0.5197 
      4 N          30.3448   -0.2545   -1.9975 N.am      1 UNK        -0.4892 
      5 CA         29.2141   -1.1747   -1.7823 C.3       1 UNK         0.0835 
      6 C6         29.1726   -1.8749   -0.3870 C.3       12 UNK        -0.0855 
      7 S7         30.7696   -2.5700    0.1664 S.3       12 UNK        -0.2931 
      8 C8         30.6947   -4.2715   -0.4886 C.3       12 UNK         0.0378 
      9 C9         30.6193   -4.2855   -2.0086 C.ar      12 UNK        -0.0802 
     10 C10        31.6357   -3.6920   -2.7624 C.ar      12 UNK        -0.0944 
     11 C11        31.5428   -3.6224   -4.1538 C.ar      12 UNK        -0.0787 
     12 C12        30.4362   -4.1847   -4.7974 C.ar      12 UNK        -0.0862 
     13 C13        29.4241   -4.8066   -4.0563 C.ar      12 UNK        -0.0733 
     14 C14        29.5216   -4.8550   -2.6619 C.ar      12 UNK        -0.0832 
     15 C15        28.2366   -5.4435   -4.7632 C.3       12 UNK         0.0240 
     16 S16        26.6810   -4.5502   -4.4407 S.3       12 UNK        -0.2522 
     17 C17        25.6506   -5.1841   -5.8164 C.3       12 UNK        -0.0967 
     18 CA         25.4309   -4.2224   -7.0205 C.3       5 UNK         0.0660 
     19 N          24.4364   -3.1800   -6.7404 N.am      5 UNK        -0.4015 
     20 C          23.4957   -2.7944   -7.6170 C.2       4 UNK         0.4946 
     21 O          23.3702   -3.2788   -8.7427 O.2       4 UNK        -0.5353 
     22 CA         22.5083   -1.6974   -7.1802 C.3       4 UNK         0.0277 
     23 CB         21.2824   -2.3236   -6.4956 C.3       4 UNK        -0.1981 
     24 N          23.0941   -0.6918   -6.2956 N.am      4 UNK        -0.4209 
     25 C          23.9975    0.2231   -6.6712 C.2       3 UNK         0.4942 
     26 O          24.4300    0.3436   -7.8178 O.2       3 UNK        -0.5208 
     27 CA         24.5402    1.1531   -5.5729 C.3       3 UNK         0.0250 
     28 CB         23.6894    2.4304   -5.4867 C.3       3 UNK        -0.1990 
     29 N          24.6489    0.5488   -4.2400 N.am      3 UNK        -0.4232 
     30 C          25.3100   -0.5811   -3.9560 C.2       2 UNK         0.4993 
     31 O          25.7929   -1.3280   -4.8093 O.2       2 UNK        -0.5286 
     32 CA         25.4286   -0.9619   -2.4750 C.3       2 UNK         0.0209 
     33 CB         24.4595   -2.1059   -2.1361 C.3       2 UNK        -0.1931 
     34 N          26.7959   -1.3698   -2.1470 N.am      2 UNK        -0.4546 
     35 C          27.8527   -0.5443   -2.1497 C.2       1 UNK         0.5154 
     36 O          27.7678    0.6580   -2.4140 O.2       1 UNK        -0.5181 
     37 C          26.7377   -3.6054   -7.5551 C.2       5 UNK         0.5014 
     38 O          27.3563   -4.1735   -8.4560 O.2       5 UNK        -0.5248 
     39 N          27.1353   -2.4616   -6.9837 N.am      6 UNK        -0.4434 
     40 CA         28.4100   -1.7935   -7.2281 C.3       6 UNK         0.0363 
     41 CB         28.8609   -1.1371   -5.9145 C.3       6 UNK        -0.1936 
     42 C          28.3552   -0.7609   -8.3651 C.2       6 UNK         0.5081 
     43 O          29.3516   -0.0711   -8.5733 O.2       6 UNK        -0.5248 
     44 N          27.2100   -0.6402   -9.0546 N.am      7 UNK        -0.4718 
     45 CA         26.9395    0.2772  -10.1714 C.3       7 UNK         0.0273 
     46 CB         27.7477   -0.1379  -11.4194 C.3       7 UNK        -0.1935 
     47 C          27.1628    1.7488   -9.7745 C.2       7 UNK         0.5018 
     48 O          28.0078    2.4299  -10.3573 O.2       7 UNK        -0.5186 
     49 N          26.4148    2.1836   -8.7505 N.am      8 UNK        -0.4240 
     50 CA         26.5092    3.4865   -8.0775 C.3       8 UNK         0.0235 
     51 CB         26.1455    4.6424   -9.0349 C.3       8 UNK        -0.2000 
     52 C          27.8587    3.6899   -7.3569 C.2       8 UNK         0.4941 
     53 O          28.4258    4.7825   -7.4097 O.2       8 UNK        -0.5273 
     54 N          28.3265    2.6289   -6.6788 N.am      9 UNK        -0.4262 
     55 CA         29.5569    2.5543   -5.8774 C.3       9 UNK         0.0264 
     56 CB         29.4664    3.4678   -4.6364 C.3       9 UNK        -0.1955 
     57 C          30.8372    2.7755   -6.7069 C.2       9 UNK         0.5031 
     58 O          31.7556    3.4643   -6.2581 O.2       9 UNK        -0.5390 
     59 N          30.8939    2.1618   -7.8951 N.am      10 UNK        -0.4204 
     60 CA         32.0252    2.2047   -8.8203 C.3       10 UNK         0.0237 
     61 CB         31.4821    2.2902  -10.2590 C.3       10 UNK        -0.1985 
     62 C          32.9442    0.9884   -8.6033 C.2       10 UNK         0.4970 
     63 O          33.2741    0.2844   -9.5598 O.2       10 UNK        -0.4914 
     64 N          33.3403    0.7578   -7.3448 N.am      11 UNK        -0.4285 
     65 CA         34.2419   -0.3321   -6.9354 C.3       11 UNK         0.1007 
     66 C          35.7258   -0.1439   -7.3705 C.2       11 UNK         0.5703 
     67 N          36.1534    1.0387   -7.7982 N.am      11 UNK        -0.7361 
     68 O          36.5028   -1.0948   -7.3245 O.2       11 UNK        -0.4986 
     69 C69        34.1509   -0.6122   -5.4126 C.3       12 UNK        -0.0947 
     70 S70        32.4875   -1.1259   -4.8685 S.3       12 UNK        -0.2240 
     71 C71        32.6466   -2.9384   -4.9445 C.3       12 UNK         0.0194 
     72 H72        30.3367    0.6415    0.8108 H         1 UNK         0.0906 
     73 H73        28.9202    1.1644   -0.1158 H         1 UNK         0.0906 
     74 H74        30.2237    2.2896    0.2049 H         1 UNK         0.0906 
     75 H75        30.8830   -0.4705   -2.8255 H         1 UNK         0.3140 
     76 H76        29.3598   -1.9495   -2.5342 H         1 UNK         0.1085 
     77 H77        28.8252   -1.1882    0.3850 H         1 UNK         0.0836 
     78 H78        28.4425   -2.6860   -0.3912 H         1 UNK         0.0836 
     79 H79        29.8433   -4.7907   -0.0457 H         1 UNK         0.0731 
     80 H80        31.5867   -4.8135   -0.1717 H         1 UNK         0.0731 
     81 H81        32.4841   -3.2470   -2.2600 H         1 UNK         0.1312 
     82 H82        30.3635   -4.1372   -5.8753 H         1 UNK         0.1406 
     83 H83        28.7326   -5.3241   -2.0894 H         1 UNK         0.1631 
     84 H84        28.1298   -6.4789   -4.4367 H         1 UNK         0.0717 
     85 H85        28.4189   -5.4777   -5.8384 H         1 UNK         0.0717 
     86 H86        26.0880   -6.1164   -6.1784 H         1 UNK         0.0934 
     87 H87        24.6839   -5.4751   -5.4024 H         1 UNK         0.0934 
     88 H88        25.0483   -4.8515   -7.8274 H         1 UNK         0.0739 
     89 H89        24.5327   -2.6897   -5.8590 H         1 UNK         0.3093 
     90 H90        22.1677   -1.1874   -8.0843 H         1 UNK         0.0818 
     91 H91        20.8074   -3.0607   -7.1448 H         1 UNK         0.0819 
     92 H92        21.5507   -2.8317   -5.5684 H         1 UNK         0.0819 
     93 H93        20.5300   -1.5702   -6.2612 H         1 UNK         0.0819 
     94 H94        22.8040   -0.7058   -5.3289 H         1 UNK         0.3041 
     95 H95        25.5518    1.4346   -5.8687 H         1 UNK         0.0784 
     96 H96        23.5587    2.8875   -6.4687 H         1 UNK         0.0793 
     97 H97        22.6930    2.2248   -5.0933 H         1 UNK         0.0793 
     98 H98        24.1569    3.1765   -4.8437 H         1 UNK         0.0793 
     99 H99        24.2675    1.0889   -3.4763 H         1 UNK         0.3024 
    100 H100       25.1775   -0.0950   -1.8595 H         1 UNK         0.1171 
    101 H101       23.4274   -1.8184   -2.3411 H         1 UNK         0.0786 
    102 H102       24.6696   -3.0019   -2.7217 H         1 UNK         0.0786 
    103 H103       24.5155   -2.3747   -1.0811 H         1 UNK         0.0786 
    104 H104       26.9388   -2.3563   -1.9875 H         1 UNK         0.2977 
    105 H105       26.5812   -2.0811   -6.2155 H         1 UNK         0.3127 
    106 H106       29.1588   -2.5375   -7.5072 H         1 UNK         0.0770 
    107 H107       28.1849   -0.3388   -5.6088 H         1 UNK         0.0814 
    108 H108       29.8587   -0.7132   -6.0181 H         1 UNK         0.0814 
    109 H109       28.8995   -1.8605   -5.1011 H         1 UNK         0.0814 
    110 H110       26.4325   -1.2164   -8.7629 H         1 UNK         0.2983 
    111 H111       25.8801    0.1764  -10.4137 H         1 UNK         0.0947 
    112 H112       28.8224   -0.0495  -11.2563 H         1 UNK         0.0806 
    113 H113       27.4967    0.4927  -12.2731 H         1 UNK         0.0806 
    114 H114       27.5360   -1.1686  -11.7036 H         1 UNK         0.0806 
    115 H115       25.7234    1.5336   -8.3786 H         1 UNK         0.3000 
    116 H116       25.7551    3.4796   -7.2913 H         1 UNK         0.0850 
    117 H117       26.0755    5.5875   -8.4951 H         1 UNK         0.0810 
    118 H118       25.1817    4.4723   -9.5146 H         1 UNK         0.0810 
    119 H119       26.8927    4.7736   -9.8181 H         1 UNK         0.0810 
    120 H120       27.7985    1.7720   -6.7439 H         1 UNK         0.3040 
    121 H121       29.6244    1.5350   -5.5026 H         1 UNK         0.0766 
    122 H122       29.4456    4.5235   -4.9080 H         1 UNK         0.0812 
    123 H123       30.3243    3.3173   -3.9793 H         1 UNK         0.0812 
    124 H124       28.5734    3.2506   -4.0499 H         1 UNK         0.0812 
    125 H125       30.1491    1.5154   -8.1570 H         1 UNK         0.3205 
    126 H126       32.6230    3.1000   -8.6381 H         1 UNK         0.0754 
    127 H127       32.2933    2.3658  -10.9841 H         1 UNK         0.0769 
    128 H128       30.8472    3.1669  -10.3894 H         1 UNK         0.0769 
    129 H129       30.8886    1.4118  -10.5170 H         1 UNK         0.0769 
    130 H130       33.0347    1.3861   -6.6154 H         1 UNK         0.2981 
    131 H131       33.9028   -1.2345   -7.4479 H         1 UNK         0.0541 
    132 H132       37.1154    1.1426   -8.0801 H         1 UNK         0.3459 
    133 H133       35.5279    1.8269   -7.8372 H         1 UNK         0.3459 
    134 H134       34.4250    0.2824   -4.8506 H         1 UNK         0.0612 
    135 H135       34.8669   -1.3798   -5.1135 H         1 UNK         0.0612 
    136 H136       33.6123   -3.2442   -4.5397 H         1 UNK         0.0624 
    137 H137       32.6318   -3.2562   -5.9881 H         1 UNK         0.0624 
@<TRIPOS>BOND
     1    1    2 1    
     2    1   72 1    
     3    1   73 1    
     4    1   74 1    
     5    2    3 2    
     6    2    4 am   BACKBONE|DICT|INTERRES
     7    4    5 1    
     8    4   75 1    
     9    5    6 1    
    10    5   35 1    
    11    5   76 1    
    12    6    7 1    
    13    6   77 1    
    14    6   78 1    
    15    7    8 1    
    16    8    9 1    
    17    8   79 1    
    18    8   80 1    
    19    9   10 ar   
    20    9   14 ar   
    21   10   11 ar   
    22   10   81 1    
    23   11   12 ar   
    24   11   71 1    
    25   12   13 ar   
    26   12   82 1    
    27   13   14 ar   
    28   13   15 1    
    29   14   83 1    
    30   15   16 1    
    31   15   84 1    
    32   15   85 1    
    33   16   17 1    
    34   17   18 1    
    35   17   86 1    
    36   17   87 1    
    37   18   19 1    
    38   18   37 1    
    39   18   88 1    
    40   19   20 am   BACKBONE|DICT|INTERRES
    41   19   89 1    
    42   20   21 2    
    43   20   22 1    
    44   22   23 1    
    45   22   24 1    
    46   22   90 1    
    47   23   91 1    
    48   23   92 1    
    49   23   93 1    
    50   24   25 am   BACKBONE|DICT|INTERRES
    51   24   94 1    
    52   25   26 2    
    53   25   27 1    
    54   27   28 1    
    55   27   29 1    
    56   27   95 1    
    57   28   96 1    
    58   28   97 1    
    59   28   98 1    
    60   29   30 am   BACKBONE|DICT|INTERRES
    61   29   99 1    
    62   30   31 2    
    63   30   32 1    
    64   32   33 1    
    65   32   34 1    
    66   32  100 1    
    67   33  101 1    
    68   33  102 1    
    69   33  103 1    
    70   34   35 am   BACKBONE|DICT|INTERRES
    71   34  104 1    
    72   35   36 2    
    73   37   38 2    
    74   37   39 am   BACKBONE|DICT|INTERRES
    75   39   40 1    
    76   39  105 1    
    77   40   41 1    
    78   40   42 1    
    79   40  106 1    
    80   41  107 1    
    81   41  108 1    
    82   41  109 1    
    83   42   43 2    
    84   42   44 am   BACKBONE|DICT|INTERRES
    85   44   45 1    
    86   44  110 1    
    87   45   46 1    
    88   45   47 1    
    89   45  111 1    
    90   46  112 1    
    91   46  113 1    
    92   46  114 1    
    93   47   48 2    
    94   47   49 am   BACKBONE|DICT|INTERRES
    95   49   50 1    
    96   49  115 1    
    97   50   51 1    
    98   50   52 1    
    99   50  116 1    
   100   51  117 1    
   101   51  118 1    
   102   51  119 1    
   103   52   53 2    
   104   52   54 am   BACKBONE|DICT|INTERRES
   105   54   55 1    
   106   54  120 1    
   107   55   56 1    
   108   55   57 1    
   109   55  121 1    
   110   56  122 1    
   111   56  123 1    
   112   56  124 1    
   113   57   58 2    
   114   57   59 am   BACKBONE|DICT|INTERRES
   115   59   60 1    
   116   59  125 1    
   117   60   61 1    
   118   60   62 1    
   119   60  126 1    
   120   61  127 1    
   121   61  128 1    
   122   61  129 1    
   123   62   63 2    
   124   62   64 am   BACKBONE|DICT|INTERRES
   125   64   65 1    
   126   64  130 1    
   127   65   66 1    
   128   65   69 1    
   129   65  131 1    
   130   66   67 am   BACKBONE|DICT|INTERRES
   131   66   68 2    
   132   67  132 1    
   133   67  133 1    
   134   69   70 1    
   135   69  134 1    
   136   69  135 1    
   137   70   71 1    
   138   71  136 1    
   139   71  137 1    
@<TRIPOS>SUBSTRUCTURE
     1 UNK         1 GROUP             0       ****    0 ROOT    
