@<TRIPOS>MOLECULE
3R137
137   139    1
SMALL
USER_CHARGES


@<TRIPOS>ATOM
      1 CA         24.7814   -5.5117   -5.9289 C.3       0 UNK        -0.2020 
      2 C          25.0939   -5.0231   -4.5232 C.2       0 UNK         0.4855 
      3 O          24.2261   -4.4403   -3.8724 O.2       0 UNK        -0.5197 
      4 N          26.3291   -5.2413   -4.0511 N.am      1 UNK        -0.4892 
      5 CA         26.8125   -4.8111   -2.7343 C.3       1 UNK         0.0835 
      6 C6         28.2271   -5.3643   -2.4444 C.3       12 UNK        -0.0855 
      7 S7         28.6797   -5.1978   -0.6836 S.3       12 UNK        -0.2931 
      8 C8         30.4949   -5.0800   -0.7724 C.3       12 UNK         0.0378 
      9 C9         30.9755   -3.8269   -1.4942 C.ar      12 UNK        -0.0802 
     10 C10        31.6629   -3.9369   -2.7069 C.ar      12 UNK        -0.0944 
     11 C11        32.1570   -2.7988   -3.3500 C.ar      12 UNK        -0.0787 
     12 C12        31.9639   -1.5441   -2.7668 C.ar      12 UNK        -0.0862 
     13 C13        31.2398   -1.4121   -1.5777 C.ar      12 UNK        -0.0733 
     14 C14        30.7586   -2.5609   -0.9399 C.ar      12 UNK        -0.0832 
     15 C15        30.9798   -0.0358   -0.9702 C.3       12 UNK         0.0240 
     16 S16        30.4665    1.2265   -2.1902 S.3       12 UNK        -0.2522 
     17 C17        28.9309    0.5106   -2.8658 C.3       12 UNK        -0.0967 
     18 CA         28.7938    0.7372   -4.3953 C.3       5 UNK         0.0660 
     19 N          28.0056   -0.3205   -5.0318 N.am      5 UNK        -0.4015 
     20 C          27.7624   -0.4406   -6.3452 C.2       4 UNK         0.4946 
     21 O          28.2523    0.2804   -7.2135 O.2       4 UNK        -0.5353 
     22 CA         26.7485   -1.5163   -6.7589 C.3       4 UNK         0.0277 
     23 CB         27.4281   -2.8883   -6.8937 C.3       4 UNK        -0.1981 
     24 N          25.6181   -1.5875   -5.8286 N.am      4 UNK        -0.4209 
     25 C          24.6968   -0.6206   -5.6940 C.2       3 UNK         0.4942 
     26 O          24.6685    0.3985   -6.3819 O.2       3 UNK        -0.5208 
     27 CA         23.6646   -0.7905   -4.5687 C.3       3 UNK         0.0250 
     28 CB         22.5020   -1.6874   -5.0216 C.3       3 UNK        -0.1990 
     29 N          24.2665   -1.3187   -3.3419 N.am      3 UNK        -0.4232 
     30 C          25.1243   -0.6234   -2.5782 C.2       2 UNK         0.4993 
     31 O          25.4545    0.5388   -2.8111 O.2       2 UNK        -0.5286 
     32 CA         25.7672   -1.3511   -1.3844 C.3       2 UNK         0.0209 
     33 CB         24.9119   -1.1721   -0.1207 C.3       2 UNK        -0.1931 
     34 N          26.0038   -2.7783   -1.6181 N.am      2 UNK        -0.4546 
     35 C          26.7573   -3.2750   -2.6087 C.2       1 UNK         0.5154 
     36 O          27.3516   -2.5756   -3.4317 O.2       1 UNK        -0.5181 
     37 C          28.2319    2.1390   -4.7159 C.2       5 UNK         0.5014 
     38 O          28.9758    2.9954   -5.1953 O.2       5 UNK        -0.5248 
     39 N          26.9251    2.3335   -4.4782 N.am      6 UNK        -0.4434 
     40 CA         26.1999    3.5800   -4.7387 C.3       6 UNK         0.0363 
     41 CB         24.7842    3.4848   -4.1480 C.3       6 UNK        -0.1936 
     42 C          26.1376    3.9547   -6.2288 C.2       6 UNK         0.5081 
     43 O          26.3167    5.1261   -6.5633 O.2       6 UNK        -0.5248 
     44 N          25.8959    2.9630   -7.0973 N.am      7 UNK        -0.4718 
     45 CA         25.8591    3.1332   -8.5537 C.3       7 UNK         0.0273 
     46 CB         25.1546    1.9189   -9.1813 C.3       7 UNK        -0.1935 
     47 C          27.2476    3.3192   -9.1919 C.2       7 UNK         0.5018 
     48 O          27.3186    3.7794  -10.3322 O.2       7 UNK        -0.5186 
     49 N          28.3073    2.9247   -8.4696 N.am      8 UNK        -0.4240 
     50 CA         29.6987    2.7940   -8.9163 C.3       8 UNK         0.0235 
     51 CB         30.3083    4.1670   -9.2699 C.3       8 UNK        -0.2000 
     52 C          29.8477    1.7507  -10.0424 C.2       8 UNK         0.4941 
     53 O          30.6453    1.9387  -10.9635 O.2       8 UNK        -0.5273 
     54 N          29.0736    0.6610   -9.9467 N.am      9 UNK        -0.4262 
     55 CA         29.0551   -0.4504  -10.8955 C.3       9 UNK         0.0264 
     56 CB         27.7210   -1.2050  -10.7593 C.3       9 UNK        -0.1955 
     57 C          30.2617   -1.3549  -10.6194 C.2       9 UNK         0.5031 
     58 O          30.1905   -2.2069   -9.7326 O.2       9 UNK        -0.5390 
     59 N          31.3807   -1.0737  -11.3027 N.am      10 UNK        -0.4204 
     60 CA         32.7367   -1.6219  -11.1177 C.3       10 UNK         0.0237 
     61 CB         32.7701   -3.1546  -11.2791 C.3       10 UNK        -0.1985 
     62 C          33.4121   -1.1809   -9.8032 C.2       10 UNK         0.4970 
     63 O          34.6171   -0.9293   -9.8015 O.2       10 UNK        -0.4914 
     64 N          32.6259   -1.0581   -8.7299 N.am      11 UNK        -0.4285 
     65 CA         33.0028   -0.5254   -7.4148 C.3       11 UNK         0.1007 
     66 C          33.3256    0.9988   -7.3853 C.2       11 UNK         0.5703 
     67 N          33.1052    1.7587   -8.4518 N.am      11 UNK        -0.7361 
     68 O          33.8021    1.5008   -6.3705 O.2       11 UNK        -0.4986 
     69 C69        31.9320   -0.8882   -6.3536 C.3       12 UNK        -0.0947 
     70 S70        31.8004   -2.6896   -6.0959 S.3       12 UNK        -0.2240 
     71 C71        32.9051   -2.9316   -4.6683 C.3       12 UNK         0.0194 
     72 H72        23.9836   -6.2531   -5.8976 H         1 UNK         0.0906 
     73 H73        24.4483   -4.6805   -6.5499 H         1 UNK         0.0906 
     74 H74        25.6491   -5.9664   -6.4063 H         1 UNK         0.0906 
     75 H75        27.0088   -5.7052   -4.6368 H         1 UNK         0.3140 
     76 H76        26.1277   -5.2430   -2.0007 H         1 UNK         0.1085 
     77 H77        28.9665   -4.8742   -3.0802 H         1 UNK         0.0836 
     78 H78        28.2730   -6.4263   -2.6911 H         1 UNK         0.0836 
     79 H79        30.8847   -5.9798   -1.2511 H         1 UNK         0.0731 
     80 H80        30.8958   -5.0786    0.2422 H         1 UNK         0.0731 
     81 H81        31.8225   -4.9112   -3.1486 H         1 UNK         0.1312 
     82 H82        32.3619   -0.6611   -3.2443 H         1 UNK         0.1406 
     83 H83        30.2144   -2.4757   -0.0089 H         1 UNK         0.1631 
     84 H84        31.8906    0.3050   -0.4766 H         1 UNK         0.0717 
     85 H85        30.2124   -0.0961   -0.1968 H         1 UNK         0.0717 
     86 H86        28.9343   -0.5589   -2.6542 H         1 UNK         0.0934 
     87 H87        28.0807    0.9133   -2.3129 H         1 UNK         0.0934 
     88 H88        29.7870    0.6739   -4.8437 H         1 UNK         0.0739 
     89 H89        27.6198   -1.0305   -4.4129 H         1 UNK         0.3093 
     90 H90        26.3544   -1.2360   -7.7377 H         1 UNK         0.0818 
     91 H91        28.2750   -2.8346   -7.5802 H         1 UNK         0.0819 
     92 H92        26.7406   -3.6346   -7.2901 H         1 UNK         0.0819 
     93 H93        27.8123   -3.2518   -5.9406 H         1 UNK         0.0819 
     94 H94        25.6085   -2.3569   -5.1746 H         1 UNK         0.3041 
     95 H95        23.2569    0.1974   -4.3429 H         1 UNK         0.0784 
     96 H96        22.0026   -1.2621   -5.8933 H         1 UNK         0.0793 
     97 H97        22.8390   -2.6864   -5.2981 H         1 UNK         0.0793 
     98 H98        21.7516   -1.7912   -4.2377 H         1 UNK         0.0793 
     99 H99        24.0799   -2.2890   -3.1174 H         1 UNK         0.3024 
    100 H100       26.7386   -0.8854   -1.2068 H         1 UNK         0.1171 
    101 H101       25.4034   -1.5960    0.7553 H         1 UNK         0.0786 
    102 H102       24.7403   -0.1147    0.0870 H         1 UNK         0.0786 
    103 H103       23.9352   -1.6470   -0.2222 H         1 UNK         0.0786 
    104 H104       25.5385   -3.4206   -0.9926 H         1 UNK         0.2977 
    105 H105       26.3902    1.5882   -4.0350 H         1 UNK         0.3127 
    106 H106       26.7303    4.3817   -4.2206 H         1 UNK         0.0770 
    107 H107       24.2146    2.6702   -4.5972 H         1 UNK         0.0814 
    108 H108       24.2264    4.4069   -4.3165 H         1 UNK         0.0814 
    109 H109       24.8145    3.3161   -3.0714 H         1 UNK         0.0814 
    110 H110       25.6874    2.0329   -6.7418 H         1 UNK         0.2983 
    111 H111       25.2730    4.0260   -8.7822 H         1 UNK         0.0947 
    112 H112       25.0813    2.0228  -10.2647 H         1 UNK         0.0806 
    113 H113       24.1405    1.8062   -8.7975 H         1 UNK         0.0806 
    114 H114       25.6942    0.9929   -8.9777 H         1 UNK         0.0806 
    115 H115       28.1160    2.5233   -7.5590 H         1 UNK         0.3000 
    116 H116       30.2491    2.3977   -8.0614 H         1 UNK         0.0850 
    117 H117       31.3765    4.0793   -9.4702 H         1 UNK         0.0810 
    118 H118       30.1896    4.8749   -8.4496 H         1 UNK         0.0810 
    119 H119       29.8482    4.6001  -10.1583 H         1 UNK         0.0810 
    120 H120       28.5510    0.5346   -9.0826 H         1 UNK         0.3040 
    121 H121       29.1225   -0.0601  -11.9133 H         1 UNK         0.0766 
    122 H122       26.8731   -0.5520  -10.9668 H         1 UNK         0.0812 
    123 H123       27.5883   -1.6183   -9.7597 H         1 UNK         0.0812 
    124 H124       27.6721   -2.0366  -11.4633 H         1 UNK         0.0812 
    125 H125       31.3306   -0.2884  -11.9399 H         1 UNK         0.3205 
    126 H126       33.3335   -1.1976  -11.9268 H         1 UNK         0.0754 
    127 H127       33.7971   -3.5220  -11.2688 H         1 UNK         0.0769 
    128 H128       32.3244   -3.4638  -12.2245 H         1 UNK         0.0769 
    129 H129       32.2393   -3.6645  -10.4745 H         1 UNK         0.0769 
    130 H130       31.6629   -1.3664   -8.8263 H         1 UNK         0.2981 
    131 H131       33.9339   -1.0187   -7.1300 H         1 UNK         0.0541 
    132 H132       32.7412    1.3638   -9.3035 H         1 UNK         0.3459 
    133 H133       33.3427    2.7366   -8.4090 H         1 UNK         0.3459 
    134 H134       32.1434   -0.4050   -5.4013 H         1 UNK         0.0612 
    135 H135       30.9540   -0.5176   -6.6655 H         1 UNK         0.0612 
    136 H136       33.3527   -3.9238   -4.7427 H         1 UNK         0.0624 
    137 H137       33.7340   -2.2234   -4.7102 H         1 UNK         0.0624 
@<TRIPOS>BOND
     1    1    2 1    
     2    1   72 1    
     3    1   73 1    
     4    1   74 1    
     5    2    3 2    
     6    2    4 am   BACKBONE|DICT|INTERRES
     7    4    5 1    
     8    4   75 1    
     9    5    6 1    
    10    5   35 1    
    11    5   76 1    
    12    6    7 1    
    13    6   77 1    
    14    6   78 1    
    15    7    8 1    
    16    8    9 1    
    17    8   79 1    
    18    8   80 1    
    19    9   10 ar   
    20    9   14 ar   
    21   10   11 ar   
    22   10   81 1    
    23   11   12 ar   
    24   11   71 1    
    25   12   13 ar   
    26   12   82 1    
    27   13   14 ar   
    28   13   15 1    
    29   14   83 1    
    30   15   16 1    
    31   15   84 1    
    32   15   85 1    
    33   16   17 1    
    34   17   18 1    
    35   17   86 1    
    36   17   87 1    
    37   18   19 1    
    38   18   37 1    
    39   18   88 1    
    40   19   20 am   BACKBONE|DICT|INTERRES
    41   19   89 1    
    42   20   21 2    
    43   20   22 1    
    44   22   23 1    
    45   22   24 1    
    46   22   90 1    
    47   23   91 1    
    48   23   92 1    
    49   23   93 1    
    50   24   25 am   BACKBONE|DICT|INTERRES
    51   24   94 1    
    52   25   26 2    
    53   25   27 1    
    54   27   28 1    
    55   27   29 1    
    56   27   95 1    
    57   28   96 1    
    58   28   97 1    
    59   28   98 1    
    60   29   30 am   BACKBONE|DICT|INTERRES
    61   29   99 1    
    62   30   31 2    
    63   30   32 1    
    64   32   33 1    
    65   32   34 1    
    66   32  100 1    
    67   33  101 1    
    68   33  102 1    
    69   33  103 1    
    70   34   35 am   BACKBONE|DICT|INTERRES
    71   34  104 1    
    72   35   36 2    
    73   37   38 2    
    74   37   39 am   BACKBONE|DICT|INTERRES
    75   39   40 1    
    76   39  105 1    
    77   40   41 1    
    78   40   42 1    
    79   40  106 1    
    80   41  107 1    
    81   41  108 1    
    82   41  109 1    
    83   42   43 2    
    84   42   44 am   BACKBONE|DICT|INTERRES
    85   44   45 1    
    86   44  110 1    
    87   45   46 1    
    88   45   47 1    
    89   45  111 1    
    90   46  112 1    
    91   46  113 1    
    92   46  114 1    
    93   47   48 2    
    94   47   49 am   BACKBONE|DICT|INTERRES
    95   49   50 1    
    96   49  115 1    
    97   50   51 1    
    98   50   52 1    
    99   50  116 1    
   100   51  117 1    
   101   51  118 1    
   102   51  119 1    
   103   52   53 2    
   104   52   54 am   BACKBONE|DICT|INTERRES
   105   54   55 1    
   106   54  120 1    
   107   55   56 1    
   108   55   57 1    
   109   55  121 1    
   110   56  122 1    
   111   56  123 1    
   112   56  124 1    
   113   57   58 2    
   114   57   59 am   BACKBONE|DICT|INTERRES
   115   59   60 1    
   116   59  125 1    
   117   60   61 1    
   118   60   62 1    
   119   60  126 1    
   120   61  127 1    
   121   61  128 1    
   122   61  129 1    
   123   62   63 2    
   124   62   64 am   BACKBONE|DICT|INTERRES
   125   64   65 1    
   126   64  130 1    
   127   65   66 1    
   128   65   69 1    
   129   65  131 1    
   130   66   67 am   BACKBONE|DICT|INTERRES
   131   66   68 2    
   132   67  132 1    
   133   67  133 1    
   134   69   70 1    
   135   69  134 1    
   136   69  135 1    
   137   70   71 1    
   138   71  136 1    
   139   71  137 1    
@<TRIPOS>SUBSTRUCTURE
     1 UNK         1 GROUP             0       ****    0 ROOT    
