@<TRIPOS>MOLECULE
3R137
137   139    1
SMALL
USER_CHARGES


@<TRIPOS>ATOM
      1 CA         24.1266   -5.6945   -3.9623 C.3       0 UNK        -0.2020 
      2 C          24.7502   -4.8676   -2.8486 C.2       0 UNK         0.4855 
      3 O          24.0432   -4.1275   -2.1641 O.2       0 UNK        -0.5197 
      4 N          26.0734   -4.9785   -2.6726 N.am      1 UNK        -0.4892 
      5 CA         26.8779   -4.2529   -1.6828 C.3       1 UNK         0.0835 
      6 C6         28.3402   -4.7558   -1.7130 C.3       12 UNK        -0.0855 
      7 S7         29.3464   -4.1321   -0.3249 S.3       12 UNK        -0.2931 
      8 C8         30.9957   -4.0390   -1.0940 C.3       12 UNK         0.0378 
      9 C9         31.0818   -2.9504   -2.1559 C.ar      12 UNK        -0.0802 
     10 C10        31.1411   -3.2850   -3.5122 C.ar      12 UNK        -0.0944 
     11 C11        31.2481   -2.2869   -4.4844 C.ar      12 UNK        -0.0787 
     12 C12        31.3097   -0.9466   -4.0932 C.ar      12 UNK        -0.0862 
     13 C13        31.2280   -0.5957   -2.7406 C.ar      12 UNK        -0.0733 
     14 C14        31.1209   -1.6054   -1.7786 C.ar      12 UNK        -0.0832 
     15 C15        31.2564    0.8639   -2.2922 C.3       12 UNK         0.0240 
     16 S16        30.2355    1.9946   -3.3012 S.3       12 UNK        -0.2522 
     17 C17        28.6424    1.1128   -3.4412 C.3       12 UNK        -0.0967 
     18 CA         28.2855    0.8422   -4.9276 C.3       5 UNK         0.0660 
     19 N          27.5804   -0.4319   -5.1070 N.am      5 UNK        -0.4015 
     20 C          27.2265   -0.9600   -6.2888 C.2       4 UNK         0.4946 
     21 O          27.4934   -0.4555   -7.3768 O.2       4 UNK        -0.5353 
     22 CA         26.3533   -2.2222   -6.2533 C.3       4 UNK         0.0277 
     23 CB         27.1967   -3.4857   -6.0108 C.3       4 UNK        -0.1981 
     24 N          25.3001   -2.0949   -5.2438 N.am      4 UNK        -0.4209 
     25 C          24.2273   -1.2997   -5.3851 C.2       3 UNK         0.4942 
     26 O          23.9605   -0.6950   -6.4231 O.2       3 UNK        -0.5208 
     27 CA         23.3198   -1.1069   -4.1575 C.3       3 UNK         0.0250 
     28 CB         22.1451   -2.0969   -4.1812 C.3       3 UNK        -0.1990 
     29 N          24.0489   -1.2202   -2.8909 N.am      3 UNK        -0.4232 
     30 C          24.9143   -0.2948   -2.4472 C.2       2 UNK         0.4993 
     31 O          25.1460    0.7576   -3.0409 O.2       2 UNK        -0.5286 
     32 CA         25.7027   -0.6155   -1.1643 C.3       2 UNK         0.0209 
     33 CB         24.9290   -0.1441    0.0765 C.3       2 UNK        -0.1931 
     34 N          26.0363   -2.0365   -1.0259 N.am      2 UNK        -0.4546 
     35 C          26.7699   -2.7294   -1.9077 C.2       1 UNK         0.5154 
     36 O          27.2780   -2.2218   -2.9091 O.2       1 UNK        -0.5181 
     37 C          27.5251    2.0365   -5.5442 C.2       5 UNK         0.5014 
     38 O          28.1408    2.8840   -6.1910 O.2       5 UNK        -0.5248 
     39 N          26.1973    2.0687   -5.3563 N.am      6 UNK        -0.4434 
     40 CA         25.2949    3.0527   -5.9579 C.3       6 UNK         0.0363 
     41 CB         23.8922    2.9028   -5.3483 C.3       6 UNK        -0.1936 
     42 C          25.2269    2.9635   -7.4936 C.2       6 UNK         0.5081 
     43 O          25.0566    3.9959   -8.1431 O.2       6 UNK        -0.5248 
     44 N          25.3609    1.7501   -8.0486 N.am      7 UNK        -0.4718 
     45 CA         25.4286    1.5107   -9.4910 C.3       7 UNK         0.0273 
     46 CB         25.0979    0.0413   -9.8010 C.3       7 UNK        -0.1935 
     47 C          26.7936    1.9160  -10.0711 C.2       7 UNK         0.5018 
     48 O          26.8287    2.6414  -11.0665 O.2       7 UNK        -0.5186 
     49 N          27.8850    1.4699   -9.4354 N.am      8 UNK        -0.4240 
     50 CA         29.2570    1.8207   -9.7911 C.3       8 UNK         0.0235 
     51 CB         29.7229    1.0175  -11.0225 C.3       8 UNK        -0.2000 
     52 C          30.1709    1.5539   -8.5927 C.2       8 UNK         0.4941 
     53 O          30.3447    0.3962   -8.2118 O.2       8 UNK        -0.5273 
     54 N          30.7971    2.6086   -8.0533 N.am      9 UNK        -0.4262 
     55 CA         31.7449    2.5223   -6.9332 C.3       9 UNK         0.0264 
     56 CB         32.0774    3.9364   -6.4325 C.3       9 UNK        -0.1955 
     57 C          33.0317    1.7409   -7.2636 C.2       9 UNK         0.5031 
     58 O          33.6604    1.1983   -6.3553 O.2       9 UNK        -0.5390 
     59 N          33.3800    1.6758   -8.5563 N.am      10 UNK        -0.4204 
     60 CA         34.4536    0.8450   -9.1065 C.3       10 UNK         0.0237 
     61 CB         34.8998    1.4472  -10.4505 C.3       10 UNK        -0.1985 
     62 C          34.0573   -0.6372   -9.2806 C.2       10 UNK         0.4970 
     63 O          34.9215   -1.4376   -9.6421 O.2       10 UNK        -0.4914 
     64 N          32.7827   -0.9763   -9.0377 N.am      11 UNK        -0.4285 
     65 CA         32.1801   -2.3089   -9.1891 C.3       11 UNK         0.1007 
     66 C          32.0780   -2.7690  -10.6753 C.2       11 UNK         0.5703 
     67 N          31.8026   -4.0419  -10.9309 N.am      11 UNK        -0.7361 
     68 O          32.1964   -1.9761  -11.6085 O.2       11 UNK        -0.4986 
     69 C69        32.7922   -3.3847   -8.2381 C.3       12 UNK        -0.0947 
     70 S70        33.0193   -2.8389   -6.5109 S.3       12 UNK        -0.2240 
     71 C71        31.2993   -2.6559   -5.9572 C.3       12 UNK         0.0194 
     72 H72        23.8837   -5.0590   -4.8133 H         1 UNK         0.0906 
     73 H73        24.7963   -6.4825   -4.3062 H         1 UNK         0.0906 
     74 H74        23.2074   -6.1639   -3.6126 H         1 UNK         0.0906 
     75 H75        26.5938   -5.5950   -3.2803 H         1 UNK         0.3140 
     76 H76        26.4634   -4.4877   -0.6999 H         1 UNK         0.1085 
     77 H77        28.3594   -5.8455   -1.6565 H         1 UNK         0.0836 
     78 H78        28.8047   -4.4992   -2.6656 H         1 UNK         0.0836 
     79 H79        31.2527   -5.0130   -1.5137 H         1 UNK         0.0731 
     80 H80        31.7350   -3.8397   -0.3168 H         1 UNK         0.0731 
     81 H81        31.1088   -4.3231   -3.8135 H         1 UNK         0.1312 
     82 H82        31.4104   -0.1767   -4.8459 H         1 UNK         0.1406 
     83 H83        31.0659   -1.3490   -0.7291 H         1 UNK         0.1631 
     84 H84        32.2887    1.2154   -2.3120 H         1 UNK         0.0717 
     85 H85        30.9222    0.9489   -1.2570 H         1 UNK         0.0717 
     86 H86        28.7038    0.1762   -2.8862 H         1 UNK         0.0934 
     87 H87        27.8676    1.6895   -2.9317 H         1 UNK         0.0934 
     88 H88        29.2089    0.7303   -5.4994 H         1 UNK         0.0739 
     89 H89        27.3736   -0.9632   -4.2639 H         1 UNK         0.3093 
     90 H90        25.8764   -2.3256   -7.2308 H         1 UNK         0.0818 
     91 H91        27.9171   -3.6243   -6.8180 H         1 UNK         0.0819 
     92 H92        27.7658   -3.4365   -5.0833 H         1 UNK         0.0819 
     93 H93        26.5733   -4.3790   -5.9773 H         1 UNK         0.0819 
     94 H94        25.4892   -2.4990   -4.3374 H         1 UNK         0.3041 
     95 H95        22.9036   -0.0988   -4.2152 H         1 UNK         0.0784 
     96 H96        21.5573   -1.9793   -5.0926 H         1 UNK         0.0793 
     97 H97        22.4815   -3.1321   -4.1447 H         1 UNK         0.0793 
     98 H98        21.4721   -1.9338   -3.3392 H         1 UNK         0.0793 
     99 H99        23.9448   -2.0897   -2.3758 H         1 UNK         0.3024 
    100 H100       26.6417   -0.0600   -1.2147 H         1 UNK         0.1171 
    101 H101       25.5157   -0.2793    0.9854 H         1 UNK         0.0786 
    102 H102       24.6868    0.9173    0.0046 H         1 UNK         0.0786 
    103 H103       23.9899   -0.6855    0.1979 H         1 UNK         0.0786 
    104 H104       25.6138   -2.5282   -0.2512 H         1 UNK         0.2977 
    105 H105       25.7795    1.3979   -4.7154 H         1 UNK         0.3127 
    106 H106       25.6730    4.0448   -5.7026 H         1 UNK         0.0770 
    107 H107       23.4592    1.9276   -5.5716 H         1 UNK         0.0814 
    108 H108       23.2129    3.6591   -5.7436 H         1 UNK         0.0814 
    109 H109       23.9140    3.0208   -4.2647 H         1 UNK         0.0814 
    110 H110       25.4928    0.9482   -7.4455 H         1 UNK         0.2983 
    111 H111       24.6677    2.1280   -9.9741 H         1 UNK         0.0947 
    112 H112       24.1166   -0.2334   -9.4134 H         1 UNK         0.0806 
    113 H113       25.8280   -0.6445   -9.3724 H         1 UNK         0.0806 
    114 H114       25.0831   -0.1333  -10.8776 H         1 UNK         0.0806 
    115 H115       27.7806    0.8518   -8.6285 H         1 UNK         0.3000 
    116 H116       29.2952    2.8853  -10.0321 H         1 UNK         0.0850 
    117 H117       30.7639    1.2359  -11.2637 H         1 UNK         0.0810 
    118 H118       29.1304    1.2573  -11.9053 H         1 UNK         0.0810 
    119 H119       29.6479   -0.0576  -10.8525 H         1 UNK         0.0810 
    120 H120       30.5919    3.5339   -8.4031 H         1 UNK         0.3040 
    121 H121       31.2454    1.9865   -6.1246 H         1 UNK         0.0766 
    122 H122       32.5554    4.5392   -7.2056 H         1 UNK         0.0812 
    123 H123       31.1790    4.4583   -6.1014 H         1 UNK         0.0812 
    124 H124       32.7573    3.8969   -5.5802 H         1 UNK         0.0812 
    125 H125       32.8080    2.1734   -9.2228 H         1 UNK         0.3205 
    126 H126       35.3028    0.8731   -8.4204 H         1 UNK         0.0754 
    127 H127       35.7380    0.8894  -10.8708 H         1 UNK         0.0769 
    128 H128       35.2286    2.4802  -10.3340 H         1 UNK         0.0769 
    129 H129       34.0957    1.4296  -11.1876 H         1 UNK         0.0769 
    130 H130       32.1261   -0.2625   -8.7417 H         1 UNK         0.2981 
    131 H131       31.1419   -2.1686   -8.8888 H         1 UNK         0.0541 
    132 H132       31.6809   -4.7112  -10.1878 H         1 UNK         0.3459 
    133 H133       31.7179   -4.3383  -11.8906 H         1 UNK         0.3459 
    134 H134       33.7675   -3.7032   -8.6097 H         1 UNK         0.0612 
    135 H135       32.1689   -4.2798   -8.2204 H         1 UNK         0.0612 
    136 H136       30.8024   -1.8838   -6.5468 H         1 UNK         0.0624 
    137 H137       30.7552   -3.5847   -6.1350 H         1 UNK         0.0624 
@<TRIPOS>BOND
     1    1    2 1    
     2    1   72 1    
     3    1   73 1    
     4    1   74 1    
     5    2    3 2    
     6    2    4 am   BACKBONE|DICT|INTERRES
     7    4    5 1    
     8    4   75 1    
     9    5    6 1    
    10    5   35 1    
    11    5   76 1    
    12    6    7 1    
    13    6   77 1    
    14    6   78 1    
    15    7    8 1    
    16    8    9 1    
    17    8   79 1    
    18    8   80 1    
    19    9   10 ar   
    20    9   14 ar   
    21   10   11 ar   
    22   10   81 1    
    23   11   12 ar   
    24   11   71 1    
    25   12   13 ar   
    26   12   82 1    
    27   13   14 ar   
    28   13   15 1    
    29   14   83 1    
    30   15   16 1    
    31   15   84 1    
    32   15   85 1    
    33   16   17 1    
    34   17   18 1    
    35   17   86 1    
    36   17   87 1    
    37   18   19 1    
    38   18   37 1    
    39   18   88 1    
    40   19   20 am   BACKBONE|DICT|INTERRES
    41   19   89 1    
    42   20   21 2    
    43   20   22 1    
    44   22   23 1    
    45   22   24 1    
    46   22   90 1    
    47   23   91 1    
    48   23   92 1    
    49   23   93 1    
    50   24   25 am   BACKBONE|DICT|INTERRES
    51   24   94 1    
    52   25   26 2    
    53   25   27 1    
    54   27   28 1    
    55   27   29 1    
    56   27   95 1    
    57   28   96 1    
    58   28   97 1    
    59   28   98 1    
    60   29   30 am   BACKBONE|DICT|INTERRES
    61   29   99 1    
    62   30   31 2    
    63   30   32 1    
    64   32   33 1    
    65   32   34 1    
    66   32  100 1    
    67   33  101 1    
    68   33  102 1    
    69   33  103 1    
    70   34   35 am   BACKBONE|DICT|INTERRES
    71   34  104 1    
    72   35   36 2    
    73   37   38 2    
    74   37   39 am   BACKBONE|DICT|INTERRES
    75   39   40 1    
    76   39  105 1    
    77   40   41 1    
    78   40   42 1    
    79   40  106 1    
    80   41  107 1    
    81   41  108 1    
    82   41  109 1    
    83   42   43 2    
    84   42   44 am   BACKBONE|DICT|INTERRES
    85   44   45 1    
    86   44  110 1    
    87   45   46 1    
    88   45   47 1    
    89   45  111 1    
    90   46  112 1    
    91   46  113 1    
    92   46  114 1    
    93   47   48 2    
    94   47   49 am   BACKBONE|DICT|INTERRES
    95   49   50 1    
    96   49  115 1    
    97   50   51 1    
    98   50   52 1    
    99   50  116 1    
   100   51  117 1    
   101   51  118 1    
   102   51  119 1    
   103   52   53 2    
   104   52   54 am   BACKBONE|DICT|INTERRES
   105   54   55 1    
   106   54  120 1    
   107   55   56 1    
   108   55   57 1    
   109   55  121 1    
   110   56  122 1    
   111   56  123 1    
   112   56  124 1    
   113   57   58 2    
   114   57   59 am   BACKBONE|DICT|INTERRES
   115   59   60 1    
   116   59  125 1    
   117   60   61 1    
   118   60   62 1    
   119   60  126 1    
   120   61  127 1    
   121   61  128 1    
   122   61  129 1    
   123   62   63 2    
   124   62   64 am   BACKBONE|DICT|INTERRES
   125   64   65 1    
   126   64  130 1    
   127   65   66 1    
   128   65   69 1    
   129   65  131 1    
   130   66   67 am   BACKBONE|DICT|INTERRES
   131   66   68 2    
   132   67  132 1    
   133   67  133 1    
   134   69   70 1    
   135   69  134 1    
   136   69  135 1    
   137   70   71 1    
   138   71  136 1    
   139   71  137 1    
@<TRIPOS>SUBSTRUCTURE
     1 UNK         1 GROUP             0       ****    0 ROOT    
