@<TRIPOS>MOLECULE
3R137
137   139    1
SMALL
USER_CHARGES


@<TRIPOS>ATOM
      1 CA         25.4248   -7.3226   -1.0015 C.3       0 UNK        -0.2020 
      2 C          25.6292   -6.6607   -2.3611 C.2       0 UNK         0.4855 
      3 O          25.1429   -7.1781   -3.3647 O.2       0 UNK        -0.5197 
      4 N          26.3306   -5.5256   -2.4506 N.am      1 UNK        -0.4892 
      5 CA         26.9346   -4.7611   -1.3622 C.3       1 UNK         0.0835 
      6 C6         28.3892   -5.2247   -1.0901 C.3       12 UNK        -0.0855 
      7 S7         29.1602   -4.4021    0.3487 S.3       12 UNK        -0.2931 
      8 C8         30.8354   -4.0180   -0.2704 C.3       12 UNK         0.0378 
      9 C9         30.8131   -3.1124   -1.4953 C.ar      12 UNK        -0.0802 
     10 C10        31.2424   -3.5935   -2.7364 C.ar      12 UNK        -0.0944 
     11 C11        31.1755   -2.7923   -3.8799 C.ar      12 UNK        -0.0787 
     12 C12        30.6721   -1.4901   -3.7614 C.ar      12 UNK        -0.0862 
     13 C13        30.2584   -0.9854   -2.5236 C.ar      12 UNK        -0.0733 
     14 C14        30.3391   -1.8024   -1.3931 C.ar      12 UNK        -0.0832 
     15 C15        29.6313    0.3981   -2.3996 C.3       12 UNK         0.0240 
     16 S16        30.3216    1.6491   -3.5290 S.3       12 UNK        -0.2522 
     17 C17        28.8057    2.5568   -3.9821 C.3       12 UNK        -0.0967 
     18 CA         28.2306    2.0806   -5.3384 C.3       5 UNK         0.0660 
     19 N          27.7511    0.6924   -5.3220 N.am      5 UNK        -0.4015 
     20 C          27.5983   -0.0495   -6.4301 C.2       4 UNK         0.4946 
     21 O          27.9104    0.3428   -7.5545 O.2       4 UNK        -0.5353 
     22 CA         26.9408   -1.4347   -6.2844 C.3       4 UNK         0.0277 
     23 CB         27.9915   -2.5369   -6.0958 C.3       4 UNK        -0.1981 
     24 N          25.9619   -1.4998   -5.1973 N.am      4 UNK        -0.4209 
     25 C          24.7920   -0.8432   -5.2081 C.2       3 UNK         0.4942 
     26 O          24.4194   -0.1492   -6.1524 O.2       3 UNK        -0.5208 
     27 CA         23.8987   -0.9275   -3.9559 C.3       3 UNK         0.0250 
     28 CB         22.8184   -2.0038   -4.1441 C.3       3 UNK        -0.1990 
     29 N          24.6249   -1.1856   -2.7103 N.am      3 UNK        -0.4232 
     30 C          25.6112   -0.4266   -2.2126 C.2       2 UNK         0.4993 
     31 O          25.9995    0.6198   -2.7366 O.2       2 UNK        -0.5286 
     32 CA         26.3223   -0.9550   -0.9516 C.3       2 UNK         0.0209 
     33 CB         25.6504   -0.3881    0.3088 C.3       2 UNK        -0.1931 
     34 N          26.4167   -2.4192   -0.8331 N.am      2 UNK        -0.4546 
     35 C          26.8401   -3.2811   -1.7724 C.2       1 UNK         0.5154 
     36 O          27.1182   -2.9608   -2.9310 O.2       1 UNK        -0.5181 
     37 C          27.1272    3.0341   -5.8324 C.2       5 UNK         0.5014 
     38 O          27.4382    3.9746   -6.5630 O.2       5 UNK        -0.5248 
     39 N          25.8617    2.7622   -5.4741 N.am      6 UNK        -0.4434 
     40 CA         24.6906    3.4952   -5.9711 C.3       6 UNK         0.0363 
     41 CB         23.4418    3.0954   -5.1692 C.3       6 UNK        -0.1936 
     42 C          24.4667    3.2909   -7.4815 C.2       6 UNK         0.5081 
     43 O          24.1247    4.2448   -8.1801 O.2       6 UNK        -0.5248 
     44 N          24.7108    2.0643   -7.9632 N.am      7 UNK        -0.4718 
     45 CA         24.7198    1.6958   -9.3827 C.3       7 UNK         0.0273 
     46 CB         24.6223    0.1654   -9.4955 C.3       7 UNK        -0.1935 
     47 C          25.9549    2.2081  -10.1522 C.2       7 UNK         0.5018 
     48 O          25.9552    2.1407  -11.3820 O.2       7 UNK        -0.5186 
     49 N          26.9726    2.6957   -9.4264 N.am      8 UNK        -0.4240 
     50 CA         28.2621    3.2036   -9.9046 C.3       8 UNK         0.0235 
     51 CB         28.0749    4.4939  -10.7316 C.3       8 UNK        -0.2000 
     52 C          29.0996    2.1308  -10.6272 C.2       8 UNK         0.4941 
     53 O          29.6663    2.4007  -11.6891 O.2       8 UNK        -0.5273 
     54 N          29.1689    0.9303  -10.0357 N.am      9 UNK        -0.4262 
     55 CA         30.0251   -0.1681  -10.4869 C.3       9 UNK         0.0264 
     56 CB         29.5893   -1.4605   -9.7792 C.3       9 UNK        -0.1955 
     57 C          31.5110    0.1214  -10.2073 C.2       9 UNK         0.5031 
     58 O          31.8348    0.8939   -9.2997 O.2       9 UNK        -0.5390 
     59 N          32.3967   -0.5361  -10.9668 N.am      10 UNK        -0.4204 
     60 CA         33.8568   -0.4099  -10.8813 C.3       10 UNK         0.0237 
     61 CB         34.4733   -0.8661  -12.2178 C.3       10 UNK        -0.1985 
     62 C          34.4566   -1.1513   -9.6663 C.2       10 UNK         0.4970 
     63 O          35.3426   -1.9924   -9.8296 O.2       10 UNK        -0.4914 
     64 N          33.9562   -0.8290   -8.4700 N.am      11 UNK        -0.4285 
     65 CA         34.3920   -1.3862   -7.1796 C.3       11 UNK         0.1007 
     66 C          35.7254   -0.7904   -6.6412 C.2       11 UNK         0.5703 
     67 N          36.2658    0.2747   -7.2224 N.am      11 UNK        -0.7361 
     68 O          36.2883   -1.3141   -5.6827 O.2       11 UNK        -0.4986 
     69 C69        33.2655   -1.2871   -6.1189 C.3       12 UNK        -0.0947 
     70 S70        31.7799   -2.2255   -6.6097 S.3       12 UNK        -0.2240 
     71 C71        31.6087   -3.3979   -5.2188 C.3       12 UNK         0.0194 
     72 H72        25.0225   -8.3280   -1.1241 H         1 UNK         0.0906 
     73 H73        26.3613   -7.4102   -0.4526 H         1 UNK         0.0906 
     74 H74        24.7172   -6.7516   -0.4011 H         1 UNK         0.0906 
     75 H75        26.4344   -5.0751   -3.3518 H         1 UNK         0.3140 
     76 H76        26.3449   -4.8929   -0.4532 H         1 UNK         0.1085 
     77 H77        28.9973   -5.0828   -1.9841 H         1 UNK         0.0836 
     78 H78        28.4101   -6.2974   -0.8960 H         1 UNK         0.0836 
     79 H79        31.3550   -4.9528   -0.4871 H         1 UNK         0.0731 
     80 H80        31.4028   -3.5305    0.5237 H         1 UNK         0.0731 
     81 H81        31.6074   -4.6083   -2.8193 H         1 UNK         0.1312 
     82 H82        30.5711   -0.8679   -4.6379 H         1 UNK         0.1406 
     83 H83        29.9952   -1.4366   -0.4349 H         1 UNK         0.1631 
     84 H84        29.7061    0.7723   -1.3775 H         1 UNK         0.0717 
     85 H85        28.5740    0.2792   -2.6168 H         1 UNK         0.0717 
     86 H86        28.0615    2.4833   -3.1864 H         1 UNK         0.0934 
     87 H87        29.0764    3.6134   -4.0374 H         1 UNK         0.0934 
     88 H88        29.0409    2.1418   -6.0694 H         1 UNK         0.0739 
     89 H89        27.4214    0.3322   -4.4360 H         1 UNK         0.3093 
     90 H90        26.4135   -1.6390   -7.2183 H         1 UNK         0.0818 
     91 H91        28.7326   -2.5173   -6.8942 H         1 UNK         0.0819 
     92 H92        27.5336   -3.5259   -6.1048 H         1 UNK         0.0819 
     93 H93        28.5219   -2.4282   -5.1516 H         1 UNK         0.0819 
     94 H94        26.2293   -2.0351   -4.3743 H         1 UNK         0.3041 
     95 H95        23.4039    0.0394   -3.8471 H         1 UNK         0.0784 
     96 H96        22.2427   -1.8238   -5.0534 H         1 UNK         0.0793 
     97 H97        23.2523   -3.0014   -4.2252 H         1 UNK         0.0793 
     98 H98        22.1128   -2.0092   -3.3131 H         1 UNK         0.0793 
     99 H99        24.3872   -2.0319   -2.2142 H         1 UNK         0.3024 
    100 H100       27.3443   -0.5805   -0.9741 H         1 UNK         0.1171 
    101 H101       26.2143   -0.6385    1.2077 H         1 UNK         0.0786 
    102 H102       25.5879    0.7004    0.2632 H         1 UNK         0.0786 
    103 H103       24.6353   -0.7679    0.4313 H         1 UNK         0.0786 
    104 H104       26.2115   -2.7905    0.0837 H         1 UNK         0.2977 
    105 H105       25.6856    1.9771   -4.8619 H         1 UNK         0.3127 
    106 H106       24.8710    4.5596   -5.8052 H         1 UNK         0.0770 
    107 H107       23.1761    2.0498   -5.3225 H         1 UNK         0.0814 
    108 H108       22.5814    3.6937   -5.4717 H         1 UNK         0.0814 
    109 H109       23.5863    3.2536   -4.1003 H         1 UNK         0.0814 
    110 H110       24.8817    1.3117   -7.3004 H         1 UNK         0.2983 
    111 H111       23.8380    2.1335   -9.8555 H         1 UNK         0.0947 
    112 H112       24.5574   -0.1478  -10.5384 H         1 UNK         0.0806 
    113 H113       23.7371   -0.2162   -8.9864 H         1 UNK         0.0806 
    114 H114       25.4955   -0.3234   -9.0625 H         1 UNK         0.0806 
    115 H115       26.8622    2.6892   -8.4211 H         1 UNK         0.3000 
    116 H116       28.8287    3.4698   -9.0109 H         1 UNK         0.0850 
    117 H117       29.0381    4.9417  -10.9787 H         1 UNK         0.0810 
    118 H118       27.5044    5.2392  -10.1772 H         1 UNK         0.0810 
    119 H119       27.5554    4.3029  -11.6710 H         1 UNK         0.0810 
    120 H120       28.6914    0.7908   -9.1455 H         1 UNK         0.3040 
    121 H121       29.8867   -0.2908  -11.5632 H         1 UNK         0.0766 
    122 H122       28.5352   -1.6761   -9.9549 H         1 UNK         0.0812 
    123 H123       29.7402   -1.3885   -8.7023 H         1 UNK         0.0812 
    124 H124       30.1618   -2.3194  -10.1312 H         1 UNK         0.0812 
    125 H125       32.0476   -1.1861  -11.6568 H         1 UNK         0.3205 
    126 H126       34.1005    0.6471  -10.7540 H         1 UNK         0.0754 
    127 H127       35.5564   -0.7351  -12.2151 H         1 UNK         0.0769 
    128 H128       34.0834   -0.2851  -13.0539 H         1 UNK         0.0769 
    129 H129       34.2722   -1.9195  -12.4175 H         1 UNK         0.0769 
    130 H130       33.2101   -0.1396   -8.4407 H         1 UNK         0.2981 
    131 H131       34.5946   -2.4477   -7.3349 H         1 UNK         0.0541 
    132 H132       35.8125    0.7140   -8.0070 H         1 UNK         0.3459 
    133 H133       37.1327    0.6451   -6.8660 H         1 UNK         0.3459 
    134 H134       33.6120   -1.6559   -5.1517 H         1 UNK         0.0612 
    135 H135       32.9773   -0.2464   -5.9606 H         1 UNK         0.0612 
    136 H136       32.5549   -3.9264   -5.0931 H         1 UNK         0.0624 
    137 H137       30.8710   -4.1487   -5.5046 H         1 UNK         0.0624 
@<TRIPOS>BOND
     1    1    2 1    
     2    1   72 1    
     3    1   73 1    
     4    1   74 1    
     5    2    3 2    
     6    2    4 am   BACKBONE|DICT|INTERRES
     7    4    5 1    
     8    4   75 1    
     9    5    6 1    
    10    5   35 1    
    11    5   76 1    
    12    6    7 1    
    13    6   77 1    
    14    6   78 1    
    15    7    8 1    
    16    8    9 1    
    17    8   79 1    
    18    8   80 1    
    19    9   10 ar   
    20    9   14 ar   
    21   10   11 ar   
    22   10   81 1    
    23   11   12 ar   
    24   11   71 1    
    25   12   13 ar   
    26   12   82 1    
    27   13   14 ar   
    28   13   15 1    
    29   14   83 1    
    30   15   16 1    
    31   15   84 1    
    32   15   85 1    
    33   16   17 1    
    34   17   18 1    
    35   17   86 1    
    36   17   87 1    
    37   18   19 1    
    38   18   37 1    
    39   18   88 1    
    40   19   20 am   BACKBONE|DICT|INTERRES
    41   19   89 1    
    42   20   21 2    
    43   20   22 1    
    44   22   23 1    
    45   22   24 1    
    46   22   90 1    
    47   23   91 1    
    48   23   92 1    
    49   23   93 1    
    50   24   25 am   BACKBONE|DICT|INTERRES
    51   24   94 1    
    52   25   26 2    
    53   25   27 1    
    54   27   28 1    
    55   27   29 1    
    56   27   95 1    
    57   28   96 1    
    58   28   97 1    
    59   28   98 1    
    60   29   30 am   BACKBONE|DICT|INTERRES
    61   29   99 1    
    62   30   31 2    
    63   30   32 1    
    64   32   33 1    
    65   32   34 1    
    66   32  100 1    
    67   33  101 1    
    68   33  102 1    
    69   33  103 1    
    70   34   35 am   BACKBONE|DICT|INTERRES
    71   34  104 1    
    72   35   36 2    
    73   37   38 2    
    74   37   39 am   BACKBONE|DICT|INTERRES
    75   39   40 1    
    76   39  105 1    
    77   40   41 1    
    78   40   42 1    
    79   40  106 1    
    80   41  107 1    
    81   41  108 1    
    82   41  109 1    
    83   42   43 2    
    84   42   44 am   BACKBONE|DICT|INTERRES
    85   44   45 1    
    86   44  110 1    
    87   45   46 1    
    88   45   47 1    
    89   45  111 1    
    90   46  112 1    
    91   46  113 1    
    92   46  114 1    
    93   47   48 2    
    94   47   49 am   BACKBONE|DICT|INTERRES
    95   49   50 1    
    96   49  115 1    
    97   50   51 1    
    98   50   52 1    
    99   50  116 1    
   100   51  117 1    
   101   51  118 1    
   102   51  119 1    
   103   52   53 2    
   104   52   54 am   BACKBONE|DICT|INTERRES
   105   54   55 1    
   106   54  120 1    
   107   55   56 1    
   108   55   57 1    
   109   55  121 1    
   110   56  122 1    
   111   56  123 1    
   112   56  124 1    
   113   57   58 2    
   114   57   59 am   BACKBONE|DICT|INTERRES
   115   59   60 1    
   116   59  125 1    
   117   60   61 1    
   118   60   62 1    
   119   60  126 1    
   120   61  127 1    
   121   61  128 1    
   122   61  129 1    
   123   62   63 2    
   124   62   64 am   BACKBONE|DICT|INTERRES
   125   64   65 1    
   126   64  130 1    
   127   65   66 1    
   128   65   69 1    
   129   65  131 1    
   130   66   67 am   BACKBONE|DICT|INTERRES
   131   66   68 2    
   132   67  132 1    
   133   67  133 1    
   134   69   70 1    
   135   69  134 1    
   136   69  135 1    
   137   70   71 1    
   138   71  136 1    
   139   71  137 1    
@<TRIPOS>SUBSTRUCTURE
     1 UNK         1 GROUP             0       ****    0 ROOT    
