@<TRIPOS>MOLECULE
3R137
137   139    1
SMALL
USER_CHARGES


@<TRIPOS>ATOM
      1 CA         27.5780   -6.4290    0.6746 C.3       0 UNK        -0.2020 
      2 C          26.9959   -5.0938    1.1137 C.2       0 UNK         0.4855 
      3 O          26.0638   -5.0652    1.9173 O.2       0 UNK        -0.5197 
      4 N          27.5379   -3.9863    0.5908 N.am      1 UNK        -0.4892 
      5 CA         27.0898   -2.6162    0.8767 C.3       1 UNK         0.0835 
      6 C6         28.1902   -1.5753    0.5308 C.3       12 UNK        -0.0855 
      7 S7         28.5660   -1.4347   -1.2556 S.3       12 UNK        -0.2931 
      8 C8         30.0812   -2.4263   -1.3986 C.3       12 UNK         0.0378 
      9 C9         30.3699   -2.7697   -2.8516 C.ar      12 UNK        -0.0802 
     10 C10        31.3973   -2.1227   -3.5419 C.ar      12 UNK        -0.0944 
     11 C11        31.6860   -2.4570   -4.8693 C.ar      12 UNK        -0.0787 
     12 C12        30.9351   -3.4551   -5.5042 C.ar      12 UNK        -0.0862 
     13 C13        29.9102   -4.1196   -4.8190 C.ar      12 UNK        -0.0733 
     14 C14        29.6281   -3.7634   -3.4966 C.ar      12 UNK        -0.0832 
     15 C15        29.1578   -5.2791   -5.4660 C.3       12 UNK         0.0240 
     16 S16        28.1111   -4.7934   -6.8755 S.3       12 UNK        -0.2522 
     17 C17        26.8643   -3.7065   -6.0994 C.3       12 UNK        -0.0967 
     18 CA         26.5785   -2.4514   -6.9608 C.3       5 UNK         0.0660 
     19 N          25.3848   -1.7260   -6.5204 N.am      5 UNK        -0.4015 
     20 C          24.7567   -0.7947   -7.2565 C.2       4 UNK         0.4946 
     21 O          25.0836   -0.4988   -8.4054 O.2       4 UNK        -0.5353 
     22 CA         23.5920   -0.0312   -6.5997 C.3       4 UNK         0.0277 
     23 CB         22.2687   -0.7836   -6.8110 C.3       4 UNK        -0.1981 
     24 N          23.7916    0.2155   -5.1707 N.am      4 UNK        -0.4209 
     25 C          24.7941    0.9399   -4.6533 C.2       3 UNK         0.4942 
     26 O          25.6115    1.5579   -5.3340 O.2       3 UNK        -0.5208 
     27 CA         24.9492    0.9323   -3.1221 C.3       3 UNK         0.0250 
     28 CB         24.2573    2.1592   -2.5080 C.3       3 UNK        -0.1990 
     29 N          24.4682   -0.2848   -2.4534 N.am      3 UNK        -0.4232 
     30 C          24.8619   -1.5351   -2.7347 C.2       2 UNK         0.4993 
     31 O          25.6220   -1.8253   -3.6613 O.2       2 UNK        -0.5286 
     32 CA         24.3418   -2.6480   -1.8138 C.3       2 UNK         0.0209 
     33 CB         23.9391   -3.9005   -2.6129 C.3       2 UNK        -0.1931 
     34 N          25.4020   -2.9980   -0.8747 N.am      2 UNK        -0.4546 
     35 C          25.7470   -2.2667    0.1949 C.2       1 UNK         0.5154 
     36 O          25.0711   -1.3297    0.6245 O.2       1 UNK        -0.5181 
     37 C          27.7895   -1.5061   -7.0201 C.2       5 UNK         0.5014 
     38 O          28.4963   -1.4971   -8.0279 O.2       5 UNK        -0.5248 
     39 N          27.9757   -0.6955   -5.9682 N.am      6 UNK        -0.4434 
     40 CA         29.0464    0.2982   -5.8916 C.3       6 UNK         0.0363 
     41 CB         29.0840    0.9310   -4.4935 C.3       6 UNK        -0.1936 
     42 C          28.9491    1.3706   -6.9889 C.2       6 UNK         0.5081 
     43 O          29.9693    1.7247   -7.5807 O.2       6 UNK        -0.5248 
     44 N          27.7217    1.8279   -7.2734 N.am      7 UNK        -0.4718 
     45 CA         27.4025    2.7418   -8.3703 C.3       7 UNK         0.0273 
     46 CB         25.9445    3.2108   -8.2440 C.3       7 UNK        -0.1935 
     47 C          27.6590    2.1270   -9.7564 C.2       7 UNK         0.5018 
     48 O          28.2371    2.8020  -10.6080 O.2       7 UNK        -0.5186 
     49 N          27.2480    0.8647   -9.9560 N.am      8 UNK        -0.4240 
     50 CA         27.4660    0.1108  -11.1954 C.3       8 UNK         0.0235 
     51 CB         26.6431   -1.1872  -11.1740 C.3       8 UNK        -0.2000 
     52 C          28.9500   -0.1922  -11.4587 C.2       8 UNK         0.4941 
     53 O          29.4030   -0.0458  -12.5947 O.2       8 UNK        -0.5273 
     54 N          29.6812   -0.5900  -10.4083 N.am      9 UNK        -0.4262 
     55 CA         31.1266   -0.8249  -10.4418 C.3       9 UNK         0.0264 
     56 CB         31.5436   -1.5797   -9.1691 C.3       9 UNK        -0.1955 
     57 C          31.9480    0.4687  -10.5812 C.2       9 UNK         0.5031 
     58 O          33.0636    0.4135  -11.1005 O.2       9 UNK        -0.5390 
     59 N          31.3930    1.5904  -10.0963 N.am      10 UNK        -0.4204 
     60 CA         31.9989    2.9224   -9.9904 C.3       10 UNK         0.0237 
     61 CB         32.2837    3.5197  -11.3848 C.3       10 UNK        -0.1985 
     62 C          33.2256    2.9338   -9.0567 C.2       10 UNK         0.4970 
     63 O          34.1878    3.6611   -9.3105 O.2       10 UNK        -0.4914 
     64 N          33.1689    2.1168   -7.9972 N.am      11 UNK        -0.4285 
     65 CA         34.2394    1.9467   -7.0040 C.3       11 UNK         0.1007 
     66 C          34.2747    3.0379   -5.8939 C.2       11 UNK         0.5703 
     67 N          33.2917    3.9264   -5.8019 N.am      11 UNK        -0.7361 
     68 O          35.2233    3.0908   -5.1145 O.2       11 UNK        -0.4986 
     69 C69        34.2554    0.5045   -6.4303 C.3       12 UNK        -0.0947 
     70 S70        32.7062    0.0331   -5.5940 S.3       12 UNK        -0.2240 
     71 C71        32.8487   -1.7823   -5.5898 C.3       12 UNK         0.0194 
     72 H72        26.8082   -7.0348    0.1970 H         1 UNK         0.0906 
     73 H73        28.3991   -6.3058   -0.0314 H         1 UNK         0.0906 
     74 H74        27.9541   -6.9761    1.5387 H         1 UNK         0.0906 
     75 H75        28.3026   -4.0656   -0.0625 H         1 UNK         0.3140 
     76 H76        26.9081   -2.5496    1.9521 H         1 UNK         0.1085 
     77 H77        27.8859   -0.5877    0.8831 H         1 UNK         0.0836 
     78 H78        29.1056   -1.8041    1.0789 H         1 UNK         0.0836 
     79 H79        30.9125   -1.8751   -0.9560 H         1 UNK         0.0731 
     80 H80        29.9842   -3.3484   -0.8250 H         1 UNK         0.0731 
     81 H81        31.9825   -1.3617   -3.0438 H         1 UNK         0.1312 
     82 H82        31.1613   -3.7361   -6.5238 H         1 UNK         0.1406 
     83 H83        28.8419   -4.2736   -2.9575 H         1 UNK         0.1631 
     84 H84        29.8845   -6.0141   -5.8146 H         1 UNK         0.0717 
     85 H85        28.5362   -5.7966   -4.7336 H         1 UNK         0.0717 
     86 H86        25.9504   -4.2896   -5.9761 H         1 UNK         0.0934 
     87 H87        27.1785   -3.4265   -5.0927 H         1 UNK         0.0934 
     88 H88        26.3824   -2.7904   -7.9808 H         1 UNK         0.0739 
     89 H89        25.1306   -1.8432   -5.5440 H         1 UNK         0.3093 
     90 H90        23.5163    0.9395   -7.0942 H         1 UNK         0.0818 
     91 H91        21.4216   -0.2122   -6.4311 H         1 UNK         0.0819 
     92 H92        22.0873   -0.9605   -7.8722 H         1 UNK         0.0819 
     93 H93        22.2703   -1.7548   -6.3145 H         1 UNK         0.0819 
     94 H94        23.1636   -0.2507   -4.5326 H         1 UNK         0.3041 
     95 H95        26.0184    1.0046   -2.9124 H         1 UNK         0.0784 
     96 H96        24.6148    3.0810   -2.9696 H         1 UNK         0.0793 
     97 H97        23.1757    2.1240   -2.6450 H         1 UNK         0.0793 
     98 H98        24.4595    2.2362   -1.4394 H         1 UNK         0.0793 
     99 H99        23.8723   -0.1431   -1.6496 H         1 UNK         0.3024 
    100 H100       23.4670   -2.2916   -1.2649 H         1 UNK         0.1171 
    101 H101       23.5482   -4.6784   -1.9567 H         1 UNK         0.0786 
    102 H102       23.1588   -3.6656   -3.3378 H         1 UNK         0.0786 
    103 H103       24.7804   -4.3221   -3.1651 H         1 UNK         0.0786 
    104 H104       26.0402   -3.7232   -1.1659 H         1 UNK         0.2977 
    105 H105       27.3457   -0.7628   -5.1800 H         1 UNK         0.3127 
    106 H106       29.9779   -0.2436   -6.0487 H         1 UNK         0.0770 
    107 H107       28.1613    1.4634   -4.2624 H         1 UNK         0.0814 
    108 H108       29.9044    1.6456   -4.4152 H         1 UNK         0.0814 
    109 H109       29.2419    0.1752   -3.7246 H         1 UNK         0.0814 
    110 H110       26.9469    1.5347   -6.6822 H         1 UNK         0.2983 
    111 H111       28.0513    3.6149   -8.2717 H         1 UNK         0.0947 
    112 H112       25.6902    3.9156   -9.0367 H         1 UNK         0.0806 
    113 H113       25.7718    3.7150   -7.2929 H         1 UNK         0.0806 
    114 H114       25.2452    2.3767   -8.3104 H         1 UNK         0.0806 
    115 H115       26.7358    0.3896   -9.2188 H         1 UNK         0.3000 
    116 H116       27.1049    0.7248  -12.0233 H         1 UNK         0.0850 
    117 H117       26.7916   -1.7603  -12.0902 H         1 UNK         0.0810 
    118 H118       25.5764   -0.9778  -11.0926 H         1 UNK         0.0810 
    119 H119       26.9221   -1.8288  -10.3375 H         1 UNK         0.0810 
    120 H120       29.2113   -0.7642   -9.5192 H         1 UNK         0.3040 
    121 H121       31.3502   -1.4551  -11.3051 H         1 UNK         0.0766 
    122 H122       31.0304   -2.5383   -9.0897 H         1 UNK         0.0812 
    123 H123       31.3140   -1.0055   -8.2703 H         1 UNK         0.0812 
    124 H124       32.6155   -1.7817   -9.1655 H         1 UNK         0.0812 
    125 H125       30.5023    1.4968   -9.6204 H         1 UNK         0.3205 
    126 H126       31.2491    3.5531   -9.5104 H         1 UNK         0.0754 
    127 H127       32.5981    4.5611  -11.3071 H         1 UNK         0.0769 
    128 H128       31.3926    3.4968  -12.0125 H         1 UNK         0.0769 
    129 H129       33.0752    2.9794  -11.9050 H         1 UNK         0.0769 
    130 H130       32.3156    1.6014   -7.8234 H         1 UNK         0.2981 
    131 H131       35.1866    2.0652   -7.5335 H         1 UNK         0.0541 
    132 H132       32.5071    3.8842   -6.4317 H         1 UNK         0.3459 
    133 H133       33.3294    4.6328   -5.0845 H         1 UNK         0.3459 
    134 H134       35.0840    0.3728   -5.7322 H         1 UNK         0.0612 
    135 H135       34.4357   -0.2011   -7.2429 H         1 UNK         0.0612 
    136 H136       33.7794   -2.0645   -5.0959 H         1 UNK         0.0624 
    137 H137       32.9224   -2.1357   -6.6187 H         1 UNK         0.0624 
@<TRIPOS>BOND
     1    1    2 1    
     2    1   72 1    
     3    1   73 1    
     4    1   74 1    
     5    2    3 2    
     6    2    4 am   BACKBONE|DICT|INTERRES
     7    4    5 1    
     8    4   75 1    
     9    5    6 1    
    10    5   35 1    
    11    5   76 1    
    12    6    7 1    
    13    6   77 1    
    14    6   78 1    
    15    7    8 1    
    16    8    9 1    
    17    8   79 1    
    18    8   80 1    
    19    9   10 ar   
    20    9   14 ar   
    21   10   11 ar   
    22   10   81 1    
    23   11   12 ar   
    24   11   71 1    
    25   12   13 ar   
    26   12   82 1    
    27   13   14 ar   
    28   13   15 1    
    29   14   83 1    
    30   15   16 1    
    31   15   84 1    
    32   15   85 1    
    33   16   17 1    
    34   17   18 1    
    35   17   86 1    
    36   17   87 1    
    37   18   19 1    
    38   18   37 1    
    39   18   88 1    
    40   19   20 am   BACKBONE|DICT|INTERRES
    41   19   89 1    
    42   20   21 2    
    43   20   22 1    
    44   22   23 1    
    45   22   24 1    
    46   22   90 1    
    47   23   91 1    
    48   23   92 1    
    49   23   93 1    
    50   24   25 am   BACKBONE|DICT|INTERRES
    51   24   94 1    
    52   25   26 2    
    53   25   27 1    
    54   27   28 1    
    55   27   29 1    
    56   27   95 1    
    57   28   96 1    
    58   28   97 1    
    59   28   98 1    
    60   29   30 am   BACKBONE|DICT|INTERRES
    61   29   99 1    
    62   30   31 2    
    63   30   32 1    
    64   32   33 1    
    65   32   34 1    
    66   32  100 1    
    67   33  101 1    
    68   33  102 1    
    69   33  103 1    
    70   34   35 am   BACKBONE|DICT|INTERRES
    71   34  104 1    
    72   35   36 2    
    73   37   38 2    
    74   37   39 am   BACKBONE|DICT|INTERRES
    75   39   40 1    
    76   39  105 1    
    77   40   41 1    
    78   40   42 1    
    79   40  106 1    
    80   41  107 1    
    81   41  108 1    
    82   41  109 1    
    83   42   43 2    
    84   42   44 am   BACKBONE|DICT|INTERRES
    85   44   45 1    
    86   44  110 1    
    87   45   46 1    
    88   45   47 1    
    89   45  111 1    
    90   46  112 1    
    91   46  113 1    
    92   46  114 1    
    93   47   48 2    
    94   47   49 am   BACKBONE|DICT|INTERRES
    95   49   50 1    
    96   49  115 1    
    97   50   51 1    
    98   50   52 1    
    99   50  116 1    
   100   51  117 1    
   101   51  118 1    
   102   51  119 1    
   103   52   53 2    
   104   52   54 am   BACKBONE|DICT|INTERRES
   105   54   55 1    
   106   54  120 1    
   107   55   56 1    
   108   55   57 1    
   109   55  121 1    
   110   56  122 1    
   111   56  123 1    
   112   56  124 1    
   113   57   58 2    
   114   57   59 am   BACKBONE|DICT|INTERRES
   115   59   60 1    
   116   59  125 1    
   117   60   61 1    
   118   60   62 1    
   119   60  126 1    
   120   61  127 1    
   121   61  128 1    
   122   61  129 1    
   123   62   63 2    
   124   62   64 am   BACKBONE|DICT|INTERRES
   125   64   65 1    
   126   64  130 1    
   127   65   66 1    
   128   65   69 1    
   129   65  131 1    
   130   66   67 am   BACKBONE|DICT|INTERRES
   131   66   68 2    
   132   67  132 1    
   133   67  133 1    
   134   69   70 1    
   135   69  134 1    
   136   69  135 1    
   137   70   71 1    
   138   71  136 1    
   139   71  137 1    
@<TRIPOS>SUBSTRUCTURE
     1 UNK         1 GROUP             0       ****    0 ROOT    
