@<TRIPOS>MOLECULE
3R137
137   139    1
SMALL
USER_CHARGES


@<TRIPOS>ATOM
      1 CA         28.5338    2.2362   -1.7239 C.3       0 UNK        -0.2020 
      2 C          28.3566    0.7282   -1.8101 C.2       0 UNK         0.4855 
      3 O          28.0691    0.2031   -2.8833 O.2       0 UNK        -0.5197 
      4 N          28.5226    0.0147   -0.6916 N.am      1 UNK        -0.4892 
      5 CA         28.3871   -1.4425   -0.6225 C.3       1 UNK         0.0835 
      6 C6         29.2758   -2.0566    0.4892 C.3       12 UNK        -0.0855 
      7 S7         31.0571   -1.8815    0.1253 S.3       12 UNK        -0.2931 
      8 C8         31.5058   -3.5661   -0.4126 C.3       12 UNK         0.0378 
      9 C9         31.1376   -3.8250   -1.8685 C.ar      12 UNK        -0.0802 
     10 C10        32.0980   -3.6716   -2.8737 C.ar      12 UNK        -0.0944 
     11 C11        31.7775   -3.9391   -4.2078 C.ar      12 UNK        -0.0787 
     12 C12        30.4801   -4.3396   -4.5373 C.ar      12 UNK        -0.0862 
     13 C13        29.5006   -4.4750   -3.5463 C.ar      12 UNK        -0.0733 
     14 C14        29.8475   -4.2426   -2.2115 C.ar      12 UNK        -0.0832 
     15 C15        28.0710   -4.8931   -3.8874 C.3       12 UNK         0.0240 
     16 S16        27.4307   -4.2011   -5.4522 S.3       12 UNK        -0.2522 
     17 C17        27.5484   -2.4086   -5.1424 C.3       12 UNK        -0.0967 
     18 CA         27.1444   -1.5805   -6.3849 C.3       5 UNK         0.0660 
     19 N          25.7537   -1.8089   -6.7929 N.am      5 UNK        -0.4015 
     20 C          25.1710   -1.2967   -7.8850 C.2       4 UNK         0.4946 
     21 O          25.7748   -0.6212   -8.7189 O.2       4 UNK        -0.5353 
     22 CA         23.6526   -1.4992   -8.0521 C.3       4 UNK         0.0277 
     23 CB         23.3332   -2.8544   -8.7134 C.3       4 UNK        -0.1981 
     24 N          22.8897   -1.2816   -6.8109 N.am      4 UNK        -0.4209 
     25 C          22.8874   -2.0315   -5.7005 C.2       3 UNK         0.4942 
     26 O          23.4602   -3.1195   -5.6026 O.2       3 UNK        -0.5208 
     27 CA         22.1683   -1.4380   -4.4748 C.3       3 UNK         0.0250 
     28 CB         20.7175   -1.9405   -4.4052 C.3       3 UNK        -0.1990 
     29 N          22.8595   -1.7786   -3.2263 N.am      3 UNK        -0.4232 
     30 C          24.1322   -1.4618   -2.9475 C.2       2 UNK         0.4993 
     31 O          24.8244   -0.7290   -3.6599 O.2       2 UNK        -0.5286 
     32 CA         24.7397   -2.1072   -1.6935 C.3       2 UNK         0.0209 
     33 CB         24.6469   -3.6481   -1.7684 C.3       2 UNK        -0.1931 
     34 N          26.1387   -1.6972   -1.5665 N.am      2 UNK        -0.4546 
     35 C          26.9030   -1.8394   -0.4784 C.2       1 UNK         0.5154 
     36 O          26.4785   -2.2606    0.5996 O.2       1 UNK        -0.5181 
     37 C          27.4299   -0.0812   -6.1692 C.2       5 UNK         0.5014 
     38 O          28.4393    0.4152   -6.6676 O.2       5 UNK        -0.5248 
     39 N          26.5072    0.6255   -5.5003 N.am      6 UNK        -0.4434 
     40 CA         26.5674    2.0708   -5.2706 C.3       6 UNK         0.0363 
     41 CB         25.4808    2.4664   -4.2582 C.3       6 UNK        -0.1936 
     42 C          26.4325    2.9084   -6.5544 C.2       6 UNK         0.5081 
     43 O          26.9521    4.0234   -6.5977 O.2       6 UNK        -0.5248 
     44 N          25.7440    2.3692   -7.5712 N.am      7 UNK        -0.4718 
     45 CA         25.6165    2.9866   -8.8931 C.3       7 UNK         0.0273 
     46 CB         24.3801    2.4310   -9.6187 C.3       7 UNK        -0.1935 
     47 C          26.8886    2.7900   -9.7329 C.2       7 UNK         0.5018 
     48 O          27.2979    3.7205  -10.4280 O.2       7 UNK        -0.5186 
     49 N          27.4990    1.5982   -9.6401 N.am      8 UNK        -0.4240 
     50 CA         28.7947    1.2797  -10.2458 C.3       8 UNK         0.0235 
     51 CB         29.0471   -0.2354  -10.1699 C.3       8 UNK        -0.2000 
     52 C          29.9468    2.0622   -9.5932 C.2       8 UNK         0.4941 
     53 O          30.7893    2.6064  -10.3084 O.2       8 UNK        -0.5273 
     54 N          29.9522    2.1074   -8.2525 N.am      9 UNK        -0.4262 
     55 CA         30.8309    2.8473   -7.3358 C.3       9 UNK         0.0264 
     56 CB         30.6820    4.3677   -7.5347 C.3       9 UNK        -0.1955 
     57 C          32.3127    2.4308   -7.3551 C.2       9 UNK         0.5031 
     58 O          32.9026    2.2563   -6.2884 O.2       9 UNK        -0.5390 
     59 N          32.8930    2.2943   -8.5514 N.am      10 UNK        -0.4204 
     60 CA         34.2982    1.9538   -8.7785 C.3       10 UNK         0.0237 
     61 CB         34.7030    2.4384  -10.1808 C.3       10 UNK        -0.1985 
     62 C          34.6086    0.4550   -8.6201 C.2       10 UNK         0.4970 
     63 O          35.7819    0.1127   -8.4684 O.2       10 UNK        -0.4914 
     64 N          33.5792   -0.4036   -8.6901 N.am      11 UNK        -0.4285 
     65 CA         33.6741   -1.8770   -8.6578 C.3       11 UNK         0.1007 
     66 C          34.4148   -2.5045   -9.8822 C.2       11 UNK         0.5703 
     67 N          34.5828   -1.7922  -10.9906 N.am      11 UNK        -0.7361 
     68 O          34.8108   -3.6675   -9.8492 O.2       11 UNK        -0.4986 
     69 C69        34.1858   -2.4198   -7.2891 C.3       12 UNK        -0.0947 
     70 S70        32.9898   -2.1381   -5.9390 S.3       12 UNK        -0.2240 
     71 C71        32.8380   -3.8320   -5.2919 C.3       12 UNK         0.0194 
     72 H72        27.5884    2.7378   -1.9272 H         1 UNK         0.0906 
     73 H73        29.2616    2.5692   -2.4634 H         1 UNK         0.0906 
     74 H74        28.8820    2.5499   -0.7401 H         1 UNK         0.0906 
     75 H75        28.7454    0.4800    0.1770 H         1 UNK         0.3140 
     76 H76        28.7245   -1.8626   -1.5719 H         1 UNK         0.1085 
     77 H77        29.0464   -3.1138    0.6337 H         1 UNK         0.0836 
     78 H78        29.0707   -1.5787    1.4490 H         1 UNK         0.0836 
     79 H79        32.5810   -3.6936   -0.2774 H         1 UNK         0.0731 
     80 H80        31.0372   -4.3075    0.2363 H         1 UNK         0.0731 
     81 H81        33.1009   -3.3575   -2.6176 H         1 UNK         0.1312 
     82 H82        30.2341   -4.5440   -5.5702 H         1 UNK         0.1406 
     83 H83        29.1071   -4.3790   -1.4356 H         1 UNK         0.1631 
     84 H84        27.3922   -4.6028   -3.0847 H         1 UNK         0.0717 
     85 H85        28.0323   -5.9814   -3.9469 H         1 UNK         0.0717 
     86 H86        26.9237   -2.1600   -4.2853 H         1 UNK         0.0934 
     87 H87        28.5736   -2.1710   -4.8507 H         1 UNK         0.0934 
     88 H88        27.7732   -1.9016   -7.2183 H         1 UNK         0.0739 
     89 H89        25.1787   -2.3691   -6.1702 H         1 UNK         0.3093 
     90 H90        23.3128   -0.7221   -8.7387 H         1 UNK         0.0818 
     91 H91        23.8035   -2.9237   -9.6951 H         1 UNK         0.0819 
     92 H92        23.6959   -3.6978   -8.1255 H         1 UNK         0.0819 
     93 H93        22.2606   -2.9822   -8.8581 H         1 UNK         0.0819 
     94 H94        22.3858   -0.4056   -6.7773 H         1 UNK         0.3041 
     95 H95        22.1620   -0.3494   -4.5618 H         1 UNK         0.0784 
     96 H96        20.1678   -1.6768   -5.3099 H         1 UNK         0.0793 
     97 H97        20.6715   -3.0255   -4.3014 H         1 UNK         0.0793 
     98 H98        20.1832   -1.4989   -3.5637 H         1 UNK         0.0793 
     99 H99        22.3712   -2.4057   -2.6043 H         1 UNK         0.3024 
    100 H100       24.1876   -1.7435   -0.8241 H         1 UNK         0.1171 
    101 H101       23.6106   -3.9865   -1.7525 H         1 UNK         0.0786 
    102 H102       25.0971   -4.0304   -2.6853 H         1 UNK         0.0786 
    103 H103       25.1437   -4.1291   -0.9260 H         1 UNK         0.0786 
    104 H104       26.5174   -1.2110   -2.3756 H         1 UNK         0.2977 
    105 H105       25.7660    0.1210   -5.0167 H         1 UNK         0.3127 
    106 H106       27.5426    2.2954   -4.8332 H         1 UNK         0.0770 
    107 H107       24.4811    2.2423   -4.6322 H         1 UNK         0.0814 
    108 H108       25.5192    3.5342   -4.0391 H         1 UNK         0.0814 
    109 H109       25.6092    1.9364   -3.3143 H         1 UNK         0.0814 
    110 H110       25.3854    1.4314   -7.4650 H         1 UNK         0.2983 
    111 H111       25.4702    4.0613   -8.7607 H         1 UNK         0.0947 
    112 H112       24.2341    2.9376  -10.5737 H         1 UNK         0.0806 
    113 H113       23.4738    2.5809   -9.0319 H         1 UNK         0.0806 
    114 H114       24.4721    1.3662   -9.8311 H         1 UNK         0.0806 
    115 H115       27.0489    0.8648   -9.1002 H         1 UNK         0.3000 
    116 H116       28.7526    1.5658  -11.2990 H         1 UNK         0.0850 
    117 H117       29.9932   -0.4980  -10.6450 H         1 UNK         0.0810 
    118 H118       28.2615   -0.7922  -10.6812 H         1 UNK         0.0810 
    119 H119       29.0881   -0.5909   -9.1399 H         1 UNK         0.0810 
    120 H120       29.2588    1.5333   -7.7699 H         1 UNK         0.3040 
    121 H121       30.4581    2.6132   -6.3370 H         1 UNK         0.0766 
    122 H122       31.0203    4.6862   -8.5212 H         1 UNK         0.0812 
    123 H123       31.2682    4.9168   -6.7968 H         1 UNK         0.0812 
    124 H124       29.6434    4.6793   -7.4210 H         1 UNK         0.0812 
    125 H125       32.3057    2.4611   -9.3690 H         1 UNK         0.3205 
    126 H126       34.9061    2.4890   -8.0457 H         1 UNK         0.0754 
    127 H127       35.7526    2.2208  -10.3844 H         1 UNK         0.0769 
    128 H128       34.5732    3.5165  -10.2791 H         1 UNK         0.0769 
    129 H129       34.1114    1.9580  -10.9612 H         1 UNK         0.0769 
    130 H130       32.6527   -0.0260   -8.8157 H         1 UNK         0.2981 
    131 H131       32.6492   -2.2303   -8.7762 H         1 UNK         0.0541 
    132 H132       35.0503   -2.2123  -11.7784 H         1 UNK         0.3459 
    133 H133       34.2522   -0.8432  -11.0466 H         1 UNK         0.3459 
    134 H134       35.1383   -1.9668   -7.0133 H         1 UNK         0.0612 
    135 H135       34.3822   -3.4911   -7.3489 H         1 UNK         0.0612 
    136 H136       32.5977   -4.5109   -6.1119 H         1 UNK         0.0624 
    137 H137       33.8040   -4.1534   -4.8991 H         1 UNK         0.0624 
@<TRIPOS>BOND
     1    1    2 1    
     2    1   72 1    
     3    1   73 1    
     4    1   74 1    
     5    2    3 2    
     6    2    4 am   BACKBONE|DICT|INTERRES
     7    4    5 1    
     8    4   75 1    
     9    5    6 1    
    10    5   35 1    
    11    5   76 1    
    12    6    7 1    
    13    6   77 1    
    14    6   78 1    
    15    7    8 1    
    16    8    9 1    
    17    8   79 1    
    18    8   80 1    
    19    9   10 ar   
    20    9   14 ar   
    21   10   11 ar   
    22   10   81 1    
    23   11   12 ar   
    24   11   71 1    
    25   12   13 ar   
    26   12   82 1    
    27   13   14 ar   
    28   13   15 1    
    29   14   83 1    
    30   15   16 1    
    31   15   84 1    
    32   15   85 1    
    33   16   17 1    
    34   17   18 1    
    35   17   86 1    
    36   17   87 1    
    37   18   19 1    
    38   18   37 1    
    39   18   88 1    
    40   19   20 am   BACKBONE|DICT|INTERRES
    41   19   89 1    
    42   20   21 2    
    43   20   22 1    
    44   22   23 1    
    45   22   24 1    
    46   22   90 1    
    47   23   91 1    
    48   23   92 1    
    49   23   93 1    
    50   24   25 am   BACKBONE|DICT|INTERRES
    51   24   94 1    
    52   25   26 2    
    53   25   27 1    
    54   27   28 1    
    55   27   29 1    
    56   27   95 1    
    57   28   96 1    
    58   28   97 1    
    59   28   98 1    
    60   29   30 am   BACKBONE|DICT|INTERRES
    61   29   99 1    
    62   30   31 2    
    63   30   32 1    
    64   32   33 1    
    65   32   34 1    
    66   32  100 1    
    67   33  101 1    
    68   33  102 1    
    69   33  103 1    
    70   34   35 am   BACKBONE|DICT|INTERRES
    71   34  104 1    
    72   35   36 2    
    73   37   38 2    
    74   37   39 am   BACKBONE|DICT|INTERRES
    75   39   40 1    
    76   39  105 1    
    77   40   41 1    
    78   40   42 1    
    79   40  106 1    
    80   41  107 1    
    81   41  108 1    
    82   41  109 1    
    83   42   43 2    
    84   42   44 am   BACKBONE|DICT|INTERRES
    85   44   45 1    
    86   44  110 1    
    87   45   46 1    
    88   45   47 1    
    89   45  111 1    
    90   46  112 1    
    91   46  113 1    
    92   46  114 1    
    93   47   48 2    
    94   47   49 am   BACKBONE|DICT|INTERRES
    95   49   50 1    
    96   49  115 1    
    97   50   51 1    
    98   50   52 1    
    99   50  116 1    
   100   51  117 1    
   101   51  118 1    
   102   51  119 1    
   103   52   53 2    
   104   52   54 am   BACKBONE|DICT|INTERRES
   105   54   55 1    
   106   54  120 1    
   107   55   56 1    
   108   55   57 1    
   109   55  121 1    
   110   56  122 1    
   111   56  123 1    
   112   56  124 1    
   113   57   58 2    
   114   57   59 am   BACKBONE|DICT|INTERRES
   115   59   60 1    
   116   59  125 1    
   117   60   61 1    
   118   60   62 1    
   119   60  126 1    
   120   61  127 1    
   121   61  128 1    
   122   61  129 1    
   123   62   63 2    
   124   62   64 am   BACKBONE|DICT|INTERRES
   125   64   65 1    
   126   64  130 1    
   127   65   66 1    
   128   65   69 1    
   129   65  131 1    
   130   66   67 am   BACKBONE|DICT|INTERRES
   131   66   68 2    
   132   67  132 1    
   133   67  133 1    
   134   69   70 1    
   135   69  134 1    
   136   69  135 1    
   137   70   71 1    
   138   71  136 1    
   139   71  137 1    
@<TRIPOS>SUBSTRUCTURE
     1 UNK         1 GROUP             0       ****    0 ROOT    
