@<TRIPOS>MOLECULE
3R137
137   139    1
SMALL
USER_CHARGES


@<TRIPOS>ATOM
      1 CA         24.7265   -2.4806   -7.4531 C.3       0 UNK        -0.2020 
      2 C          25.8331   -3.4306   -7.0215 C.2       0 UNK         0.4855 
      3 O          26.1418   -4.3710   -7.7535 O.2       0 UNK        -0.5197 
      4 N          26.4303   -3.2010   -5.8440 N.am      1 UNK        -0.4892 
      5 CA         27.4344   -4.0914   -5.2449 C.3       1 UNK         0.0835 
      6 C6         28.4824   -3.3199   -4.4001 C.3       12 UNK        -0.0855 
      7 S7         27.8256   -2.5099   -2.9015 S.3       12 UNK        -0.2931 
      8 C8         29.3260   -1.7079   -2.2578 C.3       12 UNK         0.0378 
      9 C9         29.5047   -0.3170   -2.8449 C.ar      12 UNK        -0.0802 
     10 C10        30.3851   -0.0925   -3.9075 C.ar      12 UNK        -0.0944 
     11 C11        30.5571    1.1963   -4.4239 C.ar      12 UNK        -0.0787 
     12 C12        29.8180    2.2575   -3.8891 C.ar      12 UNK        -0.0862 
     13 C13        28.9300    2.0427   -2.8291 C.ar      12 UNK        -0.0733 
     14 C14        28.7950    0.7560   -2.3005 C.ar      12 UNK        -0.0832 
     15 C15        28.1297    3.2016   -2.2417 C.3       12 UNK         0.0240 
     16 S16        26.3277    2.8976   -2.2415 S.3       12 UNK        -0.2522 
     17 C17        26.0127    2.5957   -4.0099 C.3       12 UNK        -0.0967 
     18 CA         25.7984    1.0883   -4.2997 C.3       5 UNK         0.0660 
     19 N          24.5008    0.6131   -3.8151 N.am      5 UNK        -0.4015 
     20 C          24.1373   -0.6731   -3.7538 C.2       4 UNK         0.4946 
     21 O          24.8386   -1.6110   -4.1430 O.2       4 UNK        -0.5353 
     22 CA         22.7468   -0.9716   -3.1737 C.3       4 UNK         0.0277 
     23 CB         21.7405   -1.2346   -4.3052 C.3       4 UNK        -0.1981 
     24 N          22.8126   -2.1472   -2.3073 N.am      4 UNK        -0.4209 
     25 C          23.3824   -2.1767   -1.0967 C.2       3 UNK         0.4942 
     26 O          23.7491   -1.1689   -0.4907 O.2       3 UNK        -0.5208 
     27 CA         23.6148   -3.5603   -0.4611 C.3       3 UNK         0.0250 
     28 CB         22.3281   -4.1103    0.1868 C.3       3 UNK        -0.1990 
     29 N          24.2401   -4.5340   -1.3721 N.am      3 UNK        -0.4232 
     30 C          23.7199   -5.1151   -2.4628 C.2       2 UNK         0.4993 
     31 O          22.5728   -4.9206   -2.8701 O.2       2 UNK        -0.5286 
     32 CA         24.6853   -5.9680   -3.2897 C.3       2 UNK         0.0209 
     33 CB         23.9666   -6.9482   -4.2376 C.3       2 UNK        -0.1931 
     34 N          25.5030   -5.0418   -4.0622 N.am      2 UNK        -0.4546 
     35 C          26.7678   -5.2385   -4.4532 C.2       1 UNK         0.5154 
     36 O          27.4021   -6.2687   -4.2199 O.2       1 UNK        -0.5181 
     37 C          25.9954    0.8066   -5.7983 C.2       5 UNK         0.5014 
     38 O          25.0995    1.0814   -6.5989 O.2       5 UNK        -0.5248 
     39 N          27.1952    0.3224   -6.1450 N.am      6 UNK        -0.4434 
     40 CA         27.6503    0.1366   -7.5261 C.3       6 UNK         0.0363 
     41 CB         28.7706   -0.9120   -7.5427 C.3       6 UNK        -0.1936 
     42 C          28.1440    1.4392   -8.1818 C.2       6 UNK         0.5081 
     43 O          28.3802    1.4444   -9.3915 O.2       6 UNK        -0.5248 
     44 N          28.3431    2.4954   -7.3760 N.am      7 UNK        -0.4718 
     45 CA         28.7879    3.8613   -7.7031 C.3       7 UNK         0.0273 
     46 CB         27.7909    4.5601   -8.6472 C.3       7 UNK        -0.1935 
     47 C          30.2249    3.9631   -8.2464 C.2       7 UNK         0.5018 
     48 O          30.9859    4.8151   -7.7881 O.2       7 UNK        -0.5186 
     49 N          30.5694    3.0841   -9.1886 N.am      8 UNK        -0.4240 
     50 CA         31.8853    2.9527   -9.8065 C.3       8 UNK         0.0235 
     51 CB         31.9963    3.8880  -11.0224 C.3       8 UNK        -0.2000 
     52 C          32.1849    1.5024  -10.2065 C.2       8 UNK         0.4941 
     53 O          33.3492    1.1067  -10.1550 O.2       8 UNK        -0.5273 
     54 N          31.1577    0.7165  -10.5709 N.am      9 UNK        -0.4262 
     55 CA         31.3001   -0.6285  -11.1487 C.3       9 UNK         0.0264 
     56 CB         29.9263   -1.1231  -11.6326 C.3       9 UNK        -0.1955 
     57 C          31.9816   -1.6795  -10.2485 C.2       9 UNK         0.5031 
     58 O          32.4933   -2.6683  -10.7759 O.2       9 UNK        -0.5390 
     59 N          31.9975   -1.4452   -8.9301 N.am      10 UNK        -0.4204 
     60 CA         32.7060   -2.2589   -7.9365 C.3       10 UNK         0.0237 
     61 CB         31.6798   -2.9328   -7.0049 C.3       10 UNK        -0.1985 
     62 C          33.7361   -1.4337   -7.1397 C.2       10 UNK         0.4970 
     63 O          34.2198   -1.9249   -6.1189 O.2       10 UNK        -0.4914 
     64 N          34.0461   -0.2102   -7.5929 N.am      11 UNK        -0.4285 
     65 CA         34.9786    0.7228   -6.9372 C.3       11 UNK         0.1007 
     66 C          36.1363    1.1795   -7.8673 C.2       11 UNK         0.5703 
     67 N          35.9914    1.1544   -9.1865 N.am      11 UNK        -0.7361 
     68 O          37.2021    1.5468   -7.3784 O.2       11 UNK        -0.4986 
     69 C69        34.2363    1.9460   -6.3345 C.3       12 UNK        -0.0947 
     70 S70        33.2532    1.5183   -4.8601 S.3       12 UNK        -0.2240 
     71 C71        31.5671    1.4467   -5.5344 C.3       12 UNK         0.0194 
     72 H72        24.9612   -2.0469   -8.4245 H         1 UNK         0.0906 
     73 H73        23.7831   -3.0190   -7.5385 H         1 UNK         0.0906 
     74 H74        24.5854   -1.6648   -6.7471 H         1 UNK         0.0906 
     75 H75        26.0748   -2.4626   -5.2361 H         1 UNK         0.3140 
     76 H76        27.9886   -4.5732   -6.0539 H         1 UNK         0.1085 
     77 H77        28.9637   -2.5607   -5.0160 H         1 UNK         0.0836 
     78 H78        29.2810   -4.0001   -4.0977 H         1 UNK         0.0836 
     79 H79        30.2009   -2.3298   -2.4538 H         1 UNK         0.0731 
     80 H80        29.2450   -1.6355   -1.1722 H         1 UNK         0.0731 
     81 H81        30.9593   -0.9139   -4.3134 H         1 UNK         0.1312 
     82 H82        29.9520    3.2552   -4.2849 H         1 UNK         0.1406 
     83 H83        28.1160    0.5850   -1.4756 H         1 UNK         0.1631 
     84 H84        28.3290    4.1266   -2.7851 H         1 UNK         0.0717 
     85 H85        28.4576    3.3723   -1.2155 H         1 UNK         0.0717 
     86 H86        25.1416    3.1768   -4.3192 H         1 UNK         0.0934 
     87 H87        26.8500    3.0015   -4.5808 H         1 UNK         0.0934 
     88 H88        26.5532    0.5137   -3.7613 H         1 UNK         0.0739 
     89 H89        23.8588    1.3226   -3.4951 H         1 UNK         0.3093 
     90 H90        22.4049   -0.1187   -2.5834 H         1 UNK         0.0818 
     91 H91        21.6584   -0.3694   -4.9645 H         1 UNK         0.0819 
     92 H92        22.0386   -2.0856   -4.9195 H         1 UNK         0.0819 
     93 H93        20.7447   -1.4384   -3.9111 H         1 UNK         0.0819 
     94 H94        22.5742   -3.0439   -2.7233 H         1 UNK         0.3041 
     95 H95        24.3392   -3.4120    0.3417 H         1 UNK         0.0784 
     96 H96        21.9496   -3.4191    0.9409 H         1 UNK         0.0793 
     97 H97        21.5302   -4.2590   -0.5412 H         1 UNK         0.0793 
     98 H98        22.5107   -5.0632    0.6835 H         1 UNK         0.0793 
     99 H99        25.2169   -4.7128   -1.1809 H         1 UNK         0.3024 
    100 H100       25.3121   -6.5406   -2.6018 H         1 UNK         0.1171 
    101 H101       23.3595   -6.4249   -4.9775 H         1 UNK         0.0786 
    102 H102       24.6800   -7.5735   -4.7747 H         1 UNK         0.0786 
    103 H103       23.3052   -7.6137   -3.6814 H         1 UNK         0.0786 
    104 H104       25.0834   -4.1423   -4.2638 H         1 UNK         0.2977 
    105 H105       27.8636    0.1118   -5.4158 H         1 UNK         0.3127 
    106 H106       26.8205   -0.2356   -8.1304 H         1 UNK         0.0770 
    107 H107       29.1624   -1.0549   -8.5479 H         1 UNK         0.0814 
    108 H108       28.4145   -1.8841   -7.2096 H         1 UNK         0.0814 
    109 H109       29.6002   -0.6170   -6.9032 H         1 UNK         0.0814 
    110 H110       28.1638    2.3388   -6.3959 H         1 UNK         0.2983 
    111 H111       28.7783    4.4090   -6.7590 H         1 UNK         0.0947 
    112 H112       28.0792    5.5982   -8.8184 H         1 UNK         0.0806 
    113 H113       26.7861    4.5686   -8.2248 H         1 UNK         0.0806 
    114 H114       27.7394    4.0742   -9.6220 H         1 UNK         0.0806 
    115 H115       29.8441    2.4231   -9.4604 H         1 UNK         0.3000 
    116 H116       32.6467    3.2445   -9.0807 H         1 UNK         0.0850 
    117 H117       31.2384    3.6639  -11.7740 H         1 UNK         0.0810 
    118 H118       32.9721    3.7932  -11.5010 H         1 UNK         0.0810 
    119 H119       31.8799    4.9319  -10.7306 H         1 UNK         0.0810 
    120 H120       30.2173    1.0902  -10.5635 H         1 UNK         0.3040 
    121 H121       31.9394   -0.5253  -12.0283 H         1 UNK         0.0766 
    122 H122       29.5169   -0.4640  -12.3983 H         1 UNK         0.0812 
    123 H123       29.2006   -1.1804  -10.8223 H         1 UNK         0.0812 
    124 H124       30.0005   -2.1181  -12.0739 H         1 UNK         0.0812 
    125 H125       31.5503   -0.6054   -8.5957 H         1 UNK         0.3205 
    126 H126       33.2742   -3.0475   -8.4338 H         1 UNK         0.0754 
    127 H127       32.1625   -3.6698   -6.3619 H         1 UNK         0.0769 
    128 H128       30.9089   -3.4563   -7.5708 H         1 UNK         0.0769 
    129 H129       31.1904   -2.2113   -6.3528 H         1 UNK         0.0769 
    130 H130       33.6898    0.0935   -8.4917 H         1 UNK         0.2981 
    131 H131       35.4801    0.2109   -6.1137 H         1 UNK         0.0541 
    132 H132       35.0895    0.9658   -9.6147 H         1 UNK         0.3459 
    133 H133       36.7641    1.4416   -9.7653 H         1 UNK         0.3459 
    134 H134       33.6008    2.4231   -7.0811 H         1 UNK         0.0612 
    135 H135       34.9489    2.7092   -6.0155 H         1 UNK         0.0612 
    136 H136       31.3461    2.3836   -6.0456 H         1 UNK         0.0624 
    137 H137       31.5091    0.6573   -6.2832 H         1 UNK         0.0624 
@<TRIPOS>BOND
     1    1    2 1    
     2    1   72 1    
     3    1   73 1    
     4    1   74 1    
     5    2    3 2    
     6    2    4 am   BACKBONE|DICT|INTERRES
     7    4    5 1    
     8    4   75 1    
     9    5    6 1    
    10    5   35 1    
    11    5   76 1    
    12    6    7 1    
    13    6   77 1    
    14    6   78 1    
    15    7    8 1    
    16    8    9 1    
    17    8   79 1    
    18    8   80 1    
    19    9   10 ar   
    20    9   14 ar   
    21   10   11 ar   
    22   10   81 1    
    23   11   12 ar   
    24   11   71 1    
    25   12   13 ar   
    26   12   82 1    
    27   13   14 ar   
    28   13   15 1    
    29   14   83 1    
    30   15   16 1    
    31   15   84 1    
    32   15   85 1    
    33   16   17 1    
    34   17   18 1    
    35   17   86 1    
    36   17   87 1    
    37   18   19 1    
    38   18   37 1    
    39   18   88 1    
    40   19   20 am   BACKBONE|DICT|INTERRES
    41   19   89 1    
    42   20   21 2    
    43   20   22 1    
    44   22   23 1    
    45   22   24 1    
    46   22   90 1    
    47   23   91 1    
    48   23   92 1    
    49   23   93 1    
    50   24   25 am   BACKBONE|DICT|INTERRES
    51   24   94 1    
    52   25   26 2    
    53   25   27 1    
    54   27   28 1    
    55   27   29 1    
    56   27   95 1    
    57   28   96 1    
    58   28   97 1    
    59   28   98 1    
    60   29   30 am   BACKBONE|DICT|INTERRES
    61   29   99 1    
    62   30   31 2    
    63   30   32 1    
    64   32   33 1    
    65   32   34 1    
    66   32  100 1    
    67   33  101 1    
    68   33  102 1    
    69   33  103 1    
    70   34   35 am   BACKBONE|DICT|INTERRES
    71   34  104 1    
    72   35   36 2    
    73   37   38 2    
    74   37   39 am   BACKBONE|DICT|INTERRES
    75   39   40 1    
    76   39  105 1    
    77   40   41 1    
    78   40   42 1    
    79   40  106 1    
    80   41  107 1    
    81   41  108 1    
    82   41  109 1    
    83   42   43 2    
    84   42   44 am   BACKBONE|DICT|INTERRES
    85   44   45 1    
    86   44  110 1    
    87   45   46 1    
    88   45   47 1    
    89   45  111 1    
    90   46  112 1    
    91   46  113 1    
    92   46  114 1    
    93   47   48 2    
    94   47   49 am   BACKBONE|DICT|INTERRES
    95   49   50 1    
    96   49  115 1    
    97   50   51 1    
    98   50   52 1    
    99   50  116 1    
   100   51  117 1    
   101   51  118 1    
   102   51  119 1    
   103   52   53 2    
   104   52   54 am   BACKBONE|DICT|INTERRES
   105   54   55 1    
   106   54  120 1    
   107   55   56 1    
   108   55   57 1    
   109   55  121 1    
   110   56  122 1    
   111   56  123 1    
   112   56  124 1    
   113   57   58 2    
   114   57   59 am   BACKBONE|DICT|INTERRES
   115   59   60 1    
   116   59  125 1    
   117   60   61 1    
   118   60   62 1    
   119   60  126 1    
   120   61  127 1    
   121   61  128 1    
   122   61  129 1    
   123   62   63 2    
   124   62   64 am   BACKBONE|DICT|INTERRES
   125   64   65 1    
   126   64  130 1    
   127   65   66 1    
   128   65   69 1    
   129   65  131 1    
   130   66   67 am   BACKBONE|DICT|INTERRES
   131   66   68 2    
   132   67  132 1    
   133   67  133 1    
   134   69   70 1    
   135   69  134 1    
   136   69  135 1    
   137   70   71 1    
   138   71  136 1    
   139   71  137 1    
@<TRIPOS>SUBSTRUCTURE
     1 UNK         1 GROUP             0       ****    0 ROOT    
