@<TRIPOS>MOLECULE
3R137
137   139    1
SMALL
USER_CHARGES


@<TRIPOS>ATOM
      1 CA         26.9797   -0.0314    3.6448 C.3       0 UNK        -0.2020 
      2 C          27.0328   -0.7327    2.2951 C.2       0 UNK         0.4855 
      3 O          27.0545   -1.9626    2.2593 O.2       0 UNK        -0.5197 
      4 N          27.0474    0.0538    1.2066 N.am      1 UNK        -0.4892 
      5 CA         27.1070   -0.3383   -0.2118 C.3       1 UNK         0.0835 
      6 C6         28.5447   -0.4662   -0.7886 C.3       12 UNK        -0.0855 
      7 S7         29.7401   -1.5415    0.0824 S.3       12 UNK        -0.2931 
      8 C8         30.0074   -2.9006   -1.1181 C.3       12 UNK         0.0378 
      9 C9         30.4261   -2.4803   -2.5318 C.ar      12 UNK        -0.0802 
     10 C10        31.1052   -1.2828   -2.7924 C.ar      12 UNK        -0.0944 
     11 C11        31.4240   -0.8990   -4.0996 C.ar      12 UNK        -0.0787 
     12 C12        31.0742   -1.7488   -5.1587 C.ar      12 UNK        -0.0862 
     13 C13        30.4577   -2.9778   -4.9121 C.ar      12 UNK        -0.0733 
     14 C14        30.1250   -3.3293   -3.6011 C.ar      12 UNK        -0.0832 
     15 C15        30.1894   -3.9517   -6.0503 C.3       12 UNK         0.0240 
     16 S16        28.4467   -3.9331   -6.5745 S.3       12 UNK        -0.2522 
     17 C17        28.5234   -3.1893   -8.2423 C.3       12 UNK        -0.0967 
     18 CA         27.7091   -1.8815   -8.3870 C.3       5 UNK         0.0660 
     19 N          26.3156   -2.0343   -7.9582 N.am      5 UNK        -0.4015 
     20 C          25.3589   -1.1081   -8.1087 C.2       4 UNK         0.4946 
     21 O          25.5349   -0.0451   -8.7051 O.2       4 UNK        -0.5353 
     22 CA         23.9922   -1.3802   -7.4550 C.3       4 UNK         0.0277 
     23 CB         22.9681   -1.8037   -8.5200 C.3       4 UNK        -0.1981 
     24 N          24.0120   -2.3776   -6.3764 N.am      4 UNK        -0.4209 
     25 C          24.6619   -2.2510   -5.2102 C.2       3 UNK         0.4942 
     26 O          25.3944   -1.2981   -4.9311 O.2       3 UNK        -0.5208 
     27 CA         24.5102   -3.4234   -4.2283 C.3       3 UNK         0.0250 
     28 CB         25.6507   -4.4350   -4.4121 C.3       3 UNK        -0.1990 
     29 N          24.5108   -2.9745   -2.8389 N.am      3 UNK        -0.4232 
     30 C          23.4704   -2.4436   -2.1901 C.2       2 UNK         0.4993 
     31 O          22.3678   -2.2576   -2.7070 O.2       2 UNK        -0.5286 
     32 CA         23.6765   -2.0804   -0.7056 C.3       2 UNK         0.0209 
     33 CB         23.6847   -3.3444    0.1768 C.3       2 UNK        -0.1931 
     34 N          24.8420   -1.2270   -0.4216 N.am      2 UNK        -0.4546 
     35 C          26.1471   -1.4847   -0.6037 C.2       1 UNK         0.5154 
     36 O          26.5831   -2.5438   -1.0591 O.2       1 UNK        -0.5181 
     37 C          28.4212   -0.6861   -7.7220 C.2       5 UNK         0.5014 
     38 O          29.2919   -0.0902   -8.3546 O.2       5 UNK        -0.5248 
     39 N          28.0199   -0.3237   -6.4951 N.am      6 UNK        -0.4434 
     40 CA         28.5269    0.8509   -5.7879 C.3       6 UNK         0.0363 
     41 CB         28.1663    0.7369   -4.3038 C.3       6 UNK        -0.1936 
     42 C          28.0032    2.1668   -6.3812 C.2       6 UNK         0.5081 
     43 O          28.7557    3.1376   -6.4487 O.2       6 UNK        -0.5248 
     44 N          26.7411    2.1708   -6.8344 N.am      7 UNK        -0.4718 
     45 CA         26.1184    3.3007   -7.5309 C.3       7 UNK         0.0273 
     46 CB         24.5918    3.1210   -7.5556 C.3       7 UNK        -0.1935 
     47 C          26.6773    3.4755   -8.9526 C.2       7 UNK         0.5018 
     48 O          26.8752    4.6084   -9.3921 O.2       7 UNK        -0.5186 
     49 N          26.9592    2.3511   -9.6262 N.am      8 UNK        -0.4240 
     50 CA         27.6327    2.2987  -10.9273 C.3       8 UNK         0.0235 
     51 CB         27.4215    0.9038  -11.5385 C.3       8 UNK        -0.2000 
     52 C          29.1389    2.6252  -10.8618 C.2       8 UNK         0.4941 
     53 O          29.7368    2.8681  -11.9107 O.2       8 UNK        -0.5273 
     54 N          29.7224    2.6009   -9.6529 N.am      9 UNK        -0.4262 
     55 CA         31.1475    2.7548   -9.3355 C.3       9 UNK         0.0264 
     56 CB         31.6493    4.1714   -9.6863 C.3       9 UNK        -0.1955 
     57 C          32.0178    1.6339   -9.9401 C.2       9 UNK         0.5031 
     58 O          33.1545    1.8803  -10.3481 O.2       9 UNK        -0.5390 
     59 N          31.4769    0.4102   -9.9605 N.am      10 UNK        -0.4204 
     60 CA         32.1260   -0.8134  -10.4283 C.3       10 UNK         0.0237 
     61 CB         31.1005   -1.6391  -11.2281 C.3       10 UNK        -0.1985 
     62 C          32.7004   -1.5761   -9.2224 C.2       10 UNK         0.4970 
     63 O          32.3672   -2.7420   -9.0049 O.2       10 UNK        -0.4914 
     64 N          33.5230   -0.8764   -8.4346 N.am      11 UNK        -0.4285 
     65 CA         34.0765   -1.3427   -7.1538 C.3       11 UNK         0.1007 
     66 C          35.4056   -2.1408   -7.2824 C.2       11 UNK         0.5703 
     67 N          35.9784   -2.2961   -8.4704 N.am      11 UNK        -0.7361 
     68 O          35.9223   -2.6404   -6.2859 O.2       11 UNK        -0.4986 
     69 C69        34.2048   -0.1755   -6.1357 C.3       12 UNK        -0.0947 
     70 S70        32.6888    0.8389   -5.9880 S.3       12 UNK        -0.2240 
     71 C71        32.1131    0.4541   -4.2980 C.3       12 UNK         0.0194 
     72 H72        26.0893   -0.3399    4.1926 H         1 UNK         0.0906 
     73 H73        27.8543   -0.2969    4.2390 H         1 UNK         0.0906 
     74 H74        26.9563    1.0541    3.5439 H         1 UNK         0.0906 
     75 H75        27.0167    1.0533    1.3554 H         1 UNK         0.3140 
     76 H76        26.6859    0.5224   -0.7359 H         1 UNK         0.1085 
     77 H77        28.4789   -0.7838   -1.8259 H         1 UNK         0.0836 
     78 H78        28.9958    0.5265   -0.8261 H         1 UNK         0.0836 
     79 H79        30.7719   -3.5670   -0.7170 H         1 UNK         0.0731 
     80 H80        29.0881   -3.4860   -1.1678 H         1 UNK         0.0731 
     81 H81        31.3672   -0.6257   -1.9750 H         1 UNK         0.1312 
     82 H82        31.2822   -1.4698   -6.1809 H         1 UNK         0.1406 
     83 H83        29.6277   -4.2719   -3.4152 H         1 UNK         0.1631 
     84 H84        30.4350   -4.9618   -5.7195 H         1 UNK         0.0717 
     85 H85        30.8562   -3.7509   -6.8893 H         1 UNK         0.0717 
     86 H86        29.5592   -3.0302   -8.5467 H         1 UNK         0.0934 
     87 H87        28.1348   -3.9299   -8.9429 H         1 UNK         0.0934 
     88 H88        27.6724   -1.6514   -9.4531 H         1 UNK         0.0739 
     89 H89        26.0999   -2.8763   -7.4455 H         1 UNK         0.3093 
     90 H90        23.6587   -0.4358   -7.0194 H         1 UNK         0.0818 
     91 H91        21.9677   -1.8948   -8.0964 H         1 UNK         0.0819 
     92 H92        22.9105   -1.0654   -9.3216 H         1 UNK         0.0819 
     93 H93        23.2301   -2.7592   -8.9763 H         1 UNK         0.0819 
     94 H94        23.4511   -3.2046   -6.5257 H         1 UNK         0.3041 
     95 H95        23.5630   -3.9300   -4.4263 H         1 UNK         0.0784 
     96 H96        25.6873   -4.8090   -5.4359 H         1 UNK         0.0793 
     97 H97        26.6206   -3.9885   -4.1874 H         1 UNK         0.0793 
     98 H98        25.5234   -5.2981   -3.7584 H         1 UNK         0.0793 
     99 H99        25.3950   -3.0175   -2.3352 H         1 UNK         0.3024 
    100 H100       22.8048   -1.4917   -0.4144 H         1 UNK         0.1171 
    101 H101       22.7787   -3.9324    0.0240 H         1 UNK         0.0786 
    102 H102       23.7301   -3.0870    1.2351 H         1 UNK         0.0786 
    103 H103       24.5328   -3.9931   -0.0441 H         1 UNK         0.0786 
    104 H104       24.6092   -0.3175   -0.0463 H         1 UNK         0.2977 
    105 H105       27.2894   -0.8548   -6.0348 H         1 UNK         0.3127 
    106 H106       29.6146    0.8562   -5.8762 H         1 UNK         0.0770 
    107 H107       27.0889    0.7797   -4.1386 H         1 UNK         0.0814 
    108 H108       28.6263    1.5374   -3.7233 H         1 UNK         0.0814 
    109 H109       28.5287   -0.2101   -3.9103 H         1 UNK         0.0814 
    110 H110       26.2044    1.3164   -6.7801 H         1 UNK         0.2983 
    111 H111       26.3438    4.2123   -6.9726 H         1 UNK         0.0947 
    112 H112       24.1089    3.9758   -8.0310 H         1 UNK         0.0806 
    113 H113       24.1853    3.0398   -6.5475 H         1 UNK         0.0806 
    114 H114       24.2934    2.2312   -8.1107 H         1 UNK         0.0806 
    115 H115       26.6751    1.4644   -9.2175 H         1 UNK         0.3000 
    116 H116       27.1649    3.0365  -11.5826 H         1 UNK         0.0850 
    117 H117       27.8218    0.8575  -12.5522 H         1 UNK         0.0810 
    118 H118       26.3633    0.6472  -11.5946 H         1 UNK         0.0810 
    119 H119       27.9251    0.1322  -10.9567 H         1 UNK         0.0810 
    120 H120       29.1354    2.3578   -8.8660 H         1 UNK         0.3040 
    121 H121       31.2236    2.6399   -8.2530 H         1 UNK         0.0766 
    122 H122       32.6635    4.3279   -9.3172 H         1 UNK         0.0812 
    123 H123       31.0190    4.9374   -9.2347 H         1 UNK         0.0812 
    124 H124       31.6668    4.3411  -10.7632 H         1 UNK         0.0812 
    125 H125       30.5831    0.2815   -9.4825 H         1 UNK         0.3205 
    126 H126       32.9578   -0.5714  -11.0930 H         1 UNK         0.0754 
    127 H127       31.5449   -2.5623  -11.6023 H         1 UNK         0.0769 
    128 H128       30.7351   -1.0823  -12.0913 H         1 UNK         0.0769 
    129 H129       30.2377   -1.9113  -10.6199 H         1 UNK         0.0769 
    130 H130       33.7459    0.0745   -8.6927 H         1 UNK         0.2981 
    131 H131       33.3758   -2.0609   -6.7287 H         1 UNK         0.0541 
    132 H132       35.5606   -1.8968   -9.2952 H         1 UNK         0.3459 
    133 H133       36.8366   -2.8199   -8.5404 H         1 UNK         0.3459 
    134 H134       35.0156    0.4927   -6.4311 H         1 UNK         0.0612 
    135 H135       34.4746   -0.5608   -5.1509 H         1 UNK         0.0612 
    136 H136       32.9588    0.5367   -3.6137 H         1 UNK         0.0624 
    137 H137       31.4086    1.2340   -4.0062 H         1 UNK         0.0624 
@<TRIPOS>BOND
     1    1    2 1    
     2    1   72 1    
     3    1   73 1    
     4    1   74 1    
     5    2    3 2    
     6    2    4 am   BACKBONE|DICT|INTERRES
     7    4    5 1    
     8    4   75 1    
     9    5    6 1    
    10    5   35 1    
    11    5   76 1    
    12    6    7 1    
    13    6   77 1    
    14    6   78 1    
    15    7    8 1    
    16    8    9 1    
    17    8   79 1    
    18    8   80 1    
    19    9   10 ar   
    20    9   14 ar   
    21   10   11 ar   
    22   10   81 1    
    23   11   12 ar   
    24   11   71 1    
    25   12   13 ar   
    26   12   82 1    
    27   13   14 ar   
    28   13   15 1    
    29   14   83 1    
    30   15   16 1    
    31   15   84 1    
    32   15   85 1    
    33   16   17 1    
    34   17   18 1    
    35   17   86 1    
    36   17   87 1    
    37   18   19 1    
    38   18   37 1    
    39   18   88 1    
    40   19   20 am   BACKBONE|DICT|INTERRES
    41   19   89 1    
    42   20   21 2    
    43   20   22 1    
    44   22   23 1    
    45   22   24 1    
    46   22   90 1    
    47   23   91 1    
    48   23   92 1    
    49   23   93 1    
    50   24   25 am   BACKBONE|DICT|INTERRES
    51   24   94 1    
    52   25   26 2    
    53   25   27 1    
    54   27   28 1    
    55   27   29 1    
    56   27   95 1    
    57   28   96 1    
    58   28   97 1    
    59   28   98 1    
    60   29   30 am   BACKBONE|DICT|INTERRES
    61   29   99 1    
    62   30   31 2    
    63   30   32 1    
    64   32   33 1    
    65   32   34 1    
    66   32  100 1    
    67   33  101 1    
    68   33  102 1    
    69   33  103 1    
    70   34   35 am   BACKBONE|DICT|INTERRES
    71   34  104 1    
    72   35   36 2    
    73   37   38 2    
    74   37   39 am   BACKBONE|DICT|INTERRES
    75   39   40 1    
    76   39  105 1    
    77   40   41 1    
    78   40   42 1    
    79   40  106 1    
    80   41  107 1    
    81   41  108 1    
    82   41  109 1    
    83   42   43 2    
    84   42   44 am   BACKBONE|DICT|INTERRES
    85   44   45 1    
    86   44  110 1    
    87   45   46 1    
    88   45   47 1    
    89   45  111 1    
    90   46  112 1    
    91   46  113 1    
    92   46  114 1    
    93   47   48 2    
    94   47   49 am   BACKBONE|DICT|INTERRES
    95   49   50 1    
    96   49  115 1    
    97   50   51 1    
    98   50   52 1    
    99   50  116 1    
   100   51  117 1    
   101   51  118 1    
   102   51  119 1    
   103   52   53 2    
   104   52   54 am   BACKBONE|DICT|INTERRES
   105   54   55 1    
   106   54  120 1    
   107   55   56 1    
   108   55   57 1    
   109   55  121 1    
   110   56  122 1    
   111   56  123 1    
   112   56  124 1    
   113   57   58 2    
   114   57   59 am   BACKBONE|DICT|INTERRES
   115   59   60 1    
   116   59  125 1    
   117   60   61 1    
   118   60   62 1    
   119   60  126 1    
   120   61  127 1    
   121   61  128 1    
   122   61  129 1    
   123   62   63 2    
   124   62   64 am   BACKBONE|DICT|INTERRES
   125   64   65 1    
   126   64  130 1    
   127   65   66 1    
   128   65   69 1    
   129   65  131 1    
   130   66   67 am   BACKBONE|DICT|INTERRES
   131   66   68 2    
   132   67  132 1    
   133   67  133 1    
   134   69   70 1    
   135   69  134 1    
   136   69  135 1    
   137   70   71 1    
   138   71  136 1    
   139   71  137 1    
@<TRIPOS>SUBSTRUCTURE
     1 UNK         1 GROUP             0       ****    0 ROOT    
