@<TRIPOS>MOLECULE
3R137
137   139    1
SMALL
USER_CHARGES


@<TRIPOS>ATOM
      1 CA         22.5835   -2.8095   -7.3180 C.3       0 UNK        -0.2020 
      2 C          23.2504   -3.7046   -6.2862 C.2       0 UNK         0.4855 
      3 O          22.7998   -4.8310   -6.0718 O.2       0 UNK        -0.5197 
      4 N          24.3128   -3.2116   -5.6395 N.am      1 UNK        -0.4892 
      5 CA         24.9678   -3.8762   -4.5084 C.3       1 UNK         0.0835 
      6 C6         26.4275   -3.3892   -4.3279 C.3       12 UNK        -0.0855 
      7 S7         27.5000   -3.7451   -5.7608 S.3       12 UNK        -0.2931 
      8 C8         28.9333   -4.5399   -4.9580 C.3       12 UNK         0.0378 
      9 C9         29.9503   -3.5252   -4.4450 C.ar      12 UNK        -0.0802 
     10 C10        31.2084   -3.4323   -5.0484 C.ar      12 UNK        -0.0944 
     11 C11        32.1580   -2.5194   -4.5801 C.ar      12 UNK        -0.0787 
     12 C12        31.8343   -1.6739   -3.5156 C.ar      12 UNK        -0.0862 
     13 C13        30.5838   -1.7582   -2.8964 C.ar      12 UNK        -0.0733 
     14 C14        29.6559   -2.6995   -3.3538 C.ar      12 UNK        -0.0832 
     15 C15        30.2610   -0.8531   -1.7112 C.3       12 UNK         0.0240 
     16 S16        28.6442   -0.0177   -1.8433 S.3       12 UNK        -0.2522 
     17 C17        28.8197    0.9340   -3.3914 C.3       12 UNK        -0.0967 
     18 CA         27.7755    0.5049   -4.4502 C.3       5 UNK         0.0660 
     19 N          26.3995    0.6774   -3.9590 N.am      5 UNK        -0.4015 
     20 C          25.2806    0.2722   -4.5740 C.2       4 UNK         0.4946 
     21 O          25.2695   -0.3363   -5.6473 O.2       4 UNK        -0.5353 
     22 CA         23.9617    0.6215   -3.8648 C.3       4 UNK         0.0277 
     23 CB         22.7206    0.2294   -4.6883 C.3       4 UNK        -0.1981 
     24 N          23.8845    0.0027   -2.5382 N.am      4 UNK        -0.4209 
     25 C          24.4024    0.5278   -1.4173 C.2       3 UNK         0.4942 
     26 O          25.0615    1.5688   -1.4119 O.2       3 UNK        -0.5208 
     27 CA         24.1460   -0.1971   -0.0812 C.3       3 UNK         0.0250 
     28 CB         23.0073    0.4941    0.6867 C.3       3 UNK        -0.1990 
     29 N          23.8177   -1.6151   -0.2434 N.am      3 UNK        -0.4232 
     30 C          24.7264   -2.5858   -0.4001 C.2       2 UNK         0.4993 
     31 O          25.9427   -2.4015   -0.3431 O.2       2 UNK        -0.5286 
     32 CA         24.2102   -3.9995   -0.7382 C.3       2 UNK         0.0209 
     33 CB         22.7074   -4.2260   -0.4487 C.3       2 UNK        -0.1931 
     34 N          24.5466   -4.3240   -2.1313 N.am      2 UNK        -0.4546 
     35 C          24.1751   -3.6161   -3.2096 C.2       1 UNK         0.5154 
     36 O          23.3128   -2.7334   -3.1726 O.2       1 UNK        -0.5181 
     37 C          28.0301    1.2369   -5.7843 C.2       5 UNK         0.5014 
     38 O          28.8930    0.8134   -6.5550 O.2       5 UNK        -0.5248 
     39 N          27.2488    2.2929   -6.0585 N.am      6 UNK        -0.4434 
     40 CA         27.2422    3.0619   -7.3060 C.3       6 UNK         0.0363 
     41 CB         26.3173    4.2781   -7.1368 C.3       6 UNK        -0.1936 
     42 C          26.8428    2.2517   -8.5557 C.2       6 UNK         0.5081 
     43 O          27.0936    2.7157   -9.6675 O.2       6 UNK        -0.5248 
     44 N          26.2517    1.0607   -8.3746 N.am      7 UNK        -0.4718 
     45 CA         26.0158    0.0988   -9.4540 C.3       7 UNK         0.0273 
     46 CB         25.0380   -0.9790   -8.9688 C.3       7 UNK        -0.1935 
     47 C          27.3153   -0.5441   -9.9733 C.2       7 UNK         0.5018 
     48 O          27.3668   -0.9220  -11.1445 O.2       7 UNK        -0.5186 
     49 N          28.3333   -0.6469   -9.1071 N.am      8 UNK        -0.4240 
     50 CA         29.6774   -1.1022   -9.4547 C.3       8 UNK         0.0235 
     51 CB         30.2329   -1.9776   -8.3199 C.3       8 UNK        -0.2000 
     52 C          30.5802    0.1076   -9.7380 C.2       8 UNK         0.4941 
     53 O          31.1809    0.1711  -10.8116 O.2       8 UNK        -0.5273 
     54 N          30.6223    1.0580   -8.7901 N.am      9 UNK        -0.4262 
     55 CA         31.2924    2.3674   -8.8062 C.3       9 UNK         0.0264 
     56 CB         30.6523    3.3073   -9.8464 C.3       9 UNK        -0.1955 
     57 C          32.8226    2.3437   -8.9741 C.2       9 UNK         0.5031 
     58 O          33.5306    2.8777   -8.1190 O.2       9 UNK        -0.5390 
     59 N          33.3069    1.7584  -10.0764 N.am      10 UNK        -0.4204 
     60 CA         34.7058    1.7704  -10.5231 C.3       10 UNK         0.0237 
     61 CB         34.7958    1.1116  -11.9090 C.3       10 UNK        -0.1985 
     62 C          35.6940    1.1088   -9.5476 C.2       10 UNK         0.4970 
     63 O          36.8703    1.4737   -9.5379 O.2       10 UNK        -0.4914 
     64 N          35.1965    0.1641   -8.7445 N.am      11 UNK        -0.4285 
     65 CA         35.9169   -0.4847   -7.6437 C.3       11 UNK         0.1007 
     66 C          36.1177    0.4028   -6.3782 C.2       11 UNK         0.5703 
     67 N          35.5125    1.5817   -6.2772 N.am      11 UNK        -0.7361 
     68 O          36.8528    0.0159   -5.4727 O.2       11 UNK        -0.4986 
     69 C69        35.2803   -1.8578   -7.3107 C.3       12 UNK        -0.0947 
     70 S70        33.5148   -1.7403   -6.8583 S.3       12 UNK        -0.2240 
     71 C71        33.5456   -2.4754   -5.2000 C.3       12 UNK         0.0194 
     72 H72        22.8147   -1.7600   -7.1420 H         1 UNK         0.0906 
     73 H73        22.9136   -3.0777   -8.3211 H         1 UNK         0.0906 
     74 H74        21.5006   -2.9222   -7.2728 H         1 UNK         0.0906 
     75 H75        24.6272   -2.2625   -5.8209 H         1 UNK         0.3140 
     76 H76        24.9778   -4.9543   -4.6848 H         1 UNK         0.1085 
     77 H77        26.8617   -3.8618   -3.4469 H         1 UNK         0.0836 
     78 H78        26.4578   -2.3182   -4.1318 H         1 UNK         0.0836 
     79 H79        29.4009   -5.2009   -5.6894 H         1 UNK         0.0731 
     80 H80        28.6075   -5.1868   -4.1425 H         1 UNK         0.0731 
     81 H81        31.4580   -4.0770   -5.8802 H         1 UNK         0.1312 
     82 H82        32.5662   -0.9636   -3.1557 H         1 UNK         0.1406 
     83 H83        28.7005   -2.7727   -2.8571 H         1 UNK         0.1631 
     84 H84        31.0321   -0.0917   -1.5836 H         1 UNK         0.0717 
     85 H85        30.2690   -1.4542   -0.8012 H         1 UNK         0.0717 
     86 H86        28.7169    1.9946   -3.1538 H         1 UNK         0.0934 
     87 H87        29.8327    0.8095   -3.7801 H         1 UNK         0.0934 
     88 H88        27.9184   -0.5576   -4.6558 H         1 UNK         0.0739 
     89 H89        26.2995    1.1240   -3.0532 H         1 UNK         0.3093 
     90 H90        23.9391    1.7078   -3.7533 H         1 UNK         0.0818 
     91 H91        22.7422    0.6946   -5.6748 H         1 UNK         0.0819 
     92 H92        22.6542   -0.8472   -4.8382 H         1 UNK         0.0819 
     93 H93        21.8027    0.5538   -4.1982 H         1 UNK         0.0819 
     94 H94        23.4542   -0.9180   -2.5072 H         1 UNK         0.3041 
     95 H95        25.0566   -0.1095    0.5159 H         1 UNK         0.0784 
     96 H96        23.2322    1.5488    0.8525 H         1 UNK         0.0793 
     97 H97        22.0630    0.4441    0.1428 H         1 UNK         0.0793 
     98 H98        22.8560    0.0395    1.6660 H         1 UNK         0.0793 
     99 H99        22.8403   -1.8532   -0.3337 H         1 UNK         0.3024 
    100 H100       24.7743   -4.6870   -0.1053 H         1 UNK         0.1171 
    101 H101       22.4311   -5.2642   -0.6330 H         1 UNK         0.0786 
    102 H102       22.4747   -4.0167    0.5964 H         1 UNK         0.0786 
    103 H103       22.0564   -3.6040   -1.0631 H         1 UNK         0.0786 
    104 H104       25.2650   -5.0259   -2.2446 H         1 UNK         0.2977 
    105 H105       26.5712    2.5678   -5.3629 H         1 UNK         0.3127 
    106 H106       28.2589    3.4238   -7.4720 H         1 UNK         0.0770 
    107 H107       25.2857    3.9777   -6.9490 H         1 UNK         0.0814 
    108 H108       26.3171    4.8966   -8.0357 H         1 UNK         0.0814 
    109 H109       26.6404    4.9131   -6.3116 H         1 UNK         0.0814 
    110 H110       26.0431    0.7478   -7.4331 H         1 UNK         0.2983 
    111 H111       25.5533    0.6273  -10.2907 H         1 UNK         0.0947 
    112 H112       24.8199   -1.6957   -9.7617 H         1 UNK         0.0806 
    113 H113       24.0920   -0.5327   -8.6644 H         1 UNK         0.0806 
    114 H114       25.4398   -1.5386   -8.1228 H         1 UNK         0.0806 
    115 H115       28.2159   -0.2676   -8.1743 H         1 UNK         0.3000 
    116 H116       29.6412   -1.7150  -10.3581 H         1 UNK         0.0850 
    117 H117       29.5788   -2.8263   -8.1186 H         1 UNK         0.0810 
    118 H118       30.3496   -1.4247   -7.3867 H         1 UNK         0.0810 
    119 H119       31.2087   -2.3818   -8.5890 H         1 UNK         0.0810 
    120 H120       30.0872    0.8807   -7.9407 H         1 UNK         0.3040 
    121 H121       31.0998    2.7986   -7.8223 H         1 UNK         0.0766 
    122 H122       29.6009    3.4823   -9.6273 H         1 UNK         0.0812 
    123 H123       30.7186    2.9074  -10.8585 H         1 UNK         0.0812 
    124 H124       31.1435    4.2814   -9.8491 H         1 UNK         0.0812 
    125 H125       32.6317    1.2669  -10.6611 H         1 UNK         0.3205 
    126 H126       35.0051    2.8159  -10.6210 H         1 UNK         0.0754 
    127 H127       35.8205    1.1235  -12.2836 H         1 UNK         0.0769 
    128 H128       34.1797    1.6373  -12.6388 H         1 UNK         0.0769 
    129 H129       34.4690    0.0711  -11.8818 H         1 UNK         0.0769 
    130 H130       34.2149   -0.0592   -8.8123 H         1 UNK         0.2981 
    131 H131       36.9259   -0.6912   -8.0055 H         1 UNK         0.0541 
    132 H132       34.8943    1.9227   -7.0058 H         1 UNK         0.3459 
    133 H133       35.6637    2.1391   -5.4522 H         1 UNK         0.3459 
    134 H134       35.8418   -2.3605   -6.5213 H         1 UNK         0.0612 
    135 H135       35.3533   -2.5125   -8.1803 H         1 UNK         0.0612 
    136 H136       33.9449   -3.4889   -5.2622 H         1 UNK         0.0624 
    137 H137       34.2329   -1.9072   -4.5708 H         1 UNK         0.0624 
@<TRIPOS>BOND
     1    1    2 1    
     2    1   72 1    
     3    1   73 1    
     4    1   74 1    
     5    2    3 2    
     6    2    4 am   BACKBONE|DICT|INTERRES
     7    4    5 1    
     8    4   75 1    
     9    5    6 1    
    10    5   35 1    
    11    5   76 1    
    12    6    7 1    
    13    6   77 1    
    14    6   78 1    
    15    7    8 1    
    16    8    9 1    
    17    8   79 1    
    18    8   80 1    
    19    9   10 ar   
    20    9   14 ar   
    21   10   11 ar   
    22   10   81 1    
    23   11   12 ar   
    24   11   71 1    
    25   12   13 ar   
    26   12   82 1    
    27   13   14 ar   
    28   13   15 1    
    29   14   83 1    
    30   15   16 1    
    31   15   84 1    
    32   15   85 1    
    33   16   17 1    
    34   17   18 1    
    35   17   86 1    
    36   17   87 1    
    37   18   19 1    
    38   18   37 1    
    39   18   88 1    
    40   19   20 am   BACKBONE|DICT|INTERRES
    41   19   89 1    
    42   20   21 2    
    43   20   22 1    
    44   22   23 1    
    45   22   24 1    
    46   22   90 1    
    47   23   91 1    
    48   23   92 1    
    49   23   93 1    
    50   24   25 am   BACKBONE|DICT|INTERRES
    51   24   94 1    
    52   25   26 2    
    53   25   27 1    
    54   27   28 1    
    55   27   29 1    
    56   27   95 1    
    57   28   96 1    
    58   28   97 1    
    59   28   98 1    
    60   29   30 am   BACKBONE|DICT|INTERRES
    61   29   99 1    
    62   30   31 2    
    63   30   32 1    
    64   32   33 1    
    65   32   34 1    
    66   32  100 1    
    67   33  101 1    
    68   33  102 1    
    69   33  103 1    
    70   34   35 am   BACKBONE|DICT|INTERRES
    71   34  104 1    
    72   35   36 2    
    73   37   38 2    
    74   37   39 am   BACKBONE|DICT|INTERRES
    75   39   40 1    
    76   39  105 1    
    77   40   41 1    
    78   40   42 1    
    79   40  106 1    
    80   41  107 1    
    81   41  108 1    
    82   41  109 1    
    83   42   43 2    
    84   42   44 am   BACKBONE|DICT|INTERRES
    85   44   45 1    
    86   44  110 1    
    87   45   46 1    
    88   45   47 1    
    89   45  111 1    
    90   46  112 1    
    91   46  113 1    
    92   46  114 1    
    93   47   48 2    
    94   47   49 am   BACKBONE|DICT|INTERRES
    95   49   50 1    
    96   49  115 1    
    97   50   51 1    
    98   50   52 1    
    99   50  116 1    
   100   51  117 1    
   101   51  118 1    
   102   51  119 1    
   103   52   53 2    
   104   52   54 am   BACKBONE|DICT|INTERRES
   105   54   55 1    
   106   54  120 1    
   107   55   56 1    
   108   55   57 1    
   109   55  121 1    
   110   56  122 1    
   111   56  123 1    
   112   56  124 1    
   113   57   58 2    
   114   57   59 am   BACKBONE|DICT|INTERRES
   115   59   60 1    
   116   59  125 1    
   117   60   61 1    
   118   60   62 1    
   119   60  126 1    
   120   61  127 1    
   121   61  128 1    
   122   61  129 1    
   123   62   63 2    
   124   62   64 am   BACKBONE|DICT|INTERRES
   125   64   65 1    
   126   64  130 1    
   127   65   66 1    
   128   65   69 1    
   129   65  131 1    
   130   66   67 am   BACKBONE|DICT|INTERRES
   131   66   68 2    
   132   67  132 1    
   133   67  133 1    
   134   69   70 1    
   135   69  134 1    
   136   69  135 1    
   137   70   71 1    
   138   71  136 1    
   139   71  137 1    
@<TRIPOS>SUBSTRUCTURE
     1 UNK         1 GROUP             0       ****    0 ROOT    
