@<TRIPOS>MOLECULE
3R137
137   139    1
SMALL
USER_CHARGES


@<TRIPOS>ATOM
      1 CA         25.1620   -4.9499   -3.8068 C.3       0 UNK        -0.2020 
      2 C          25.4865   -5.5192   -2.4350 C.2       0 UNK         0.4855 
      3 O          25.2949   -6.7133   -2.2071 O.2       0 UNK        -0.5197 
      4 N          25.9554   -4.6670   -1.5177 N.am      1 UNK        -0.4892 
      5 CA         26.2585   -4.9974   -0.1174 C.3       1 UNK         0.0835 
      6 C6         27.7068   -4.6015    0.3005 C.3       12 UNK        -0.0855 
      7 S7         28.9958   -5.0169   -0.9306 S.3       12 UNK        -0.2931 
      8 C8         29.3692   -3.3445   -1.5620 C.3       12 UNK         0.0378 
      9 C9         29.7212   -3.3086   -3.0451 C.ar      12 UNK        -0.0802 
     10 C10        30.8199   -2.5626   -3.4841 C.ar      12 UNK        -0.0944 
     11 C11        31.1156   -2.4644   -4.8472 C.ar      12 UNK        -0.0787 
     12 C12        30.3063   -3.1233   -5.7759 C.ar      12 UNK        -0.0862 
     13 C13        29.1931   -3.8569   -5.3537 C.ar      12 UNK        -0.0733 
     14 C14        28.9078   -3.9458   -3.9884 C.ar      12 UNK        -0.0832 
     15 C15        28.3020   -4.5617   -6.3675 C.3       12 UNK         0.0240 
     16 S16        26.8051   -3.5965   -6.7582 S.3       12 UNK        -0.2522 
     17 C17        27.5036   -2.1759   -7.6657 C.3       12 UNK        -0.0967 
     18 CA         27.2876   -0.8078   -6.9599 C.3       5 UNK         0.0660 
     19 N          27.6516   -0.8403   -5.5354 N.am      5 UNK        -0.4015 
     20 C          27.1700   -0.0221   -4.5907 C.2       4 UNK         0.4946 
     21 O          26.3720    0.8906   -4.8187 O.2       4 UNK        -0.5353 
     22 CA         27.7472   -0.1881   -3.1823 C.3       4 UNK         0.0277 
     23 CB         28.9931    0.6948   -3.0067 C.3       4 UNK        -0.1981 
     24 N          26.7630    0.1632   -2.1583 N.am      4 UNK        -0.4209 
     25 C          25.8951   -0.7015   -1.6208 C.2       3 UNK         0.4942 
     26 O          25.8590   -1.8979   -1.9206 O.2       3 UNK        -0.5208 
     27 CA         24.9591   -0.1317   -0.5345 C.3       3 UNK         0.0250 
     28 CB         23.9876    0.9273   -1.0996 C.3       3 UNK        -0.1990 
     29 N          24.2614   -1.1903    0.2128 N.am      3 UNK        -0.4232 
     30 C          23.2411   -1.9641   -0.1902 C.2       2 UNK         0.4993 
     31 O          22.5894   -1.7910   -1.2218 O.2       2 UNK        -0.5286 
     32 CA         22.9781   -3.2121    0.6717 C.3       2 UNK         0.0209 
     33 CB         21.5632   -3.7875    0.4731 C.3       2 UNK        -0.1931 
     34 N          23.9633   -4.2141    0.2706 N.am      2 UNK        -0.4546 
     35 C          25.2015   -4.3078    0.7755 C.2       1 UNK         0.5154 
     36 O          25.5274   -3.7901    1.8460 O.2       1 UNK        -0.5181 
     37 C          28.0307    0.3283   -7.7021 C.2       5 UNK         0.5014 
     38 O          28.5548    0.1052   -8.7953 O.2       5 UNK        -0.5248 
     39 N          28.0971    1.5180   -7.0895 N.am      6 UNK        -0.4434 
     40 CA         28.9483    2.6485   -7.4711 C.3       6 UNK         0.0363 
     41 CB         28.7207    3.8038   -6.4841 C.3       6 UNK        -0.1936 
     42 C          28.7734    3.1350   -8.9177 C.2       6 UNK         0.5081 
     43 O          29.7581    3.5269   -9.5408 O.2       6 UNK        -0.5248 
     44 N          27.5401    3.0736   -9.4342 N.am      7 UNK        -0.4718 
     45 CA         27.2003    3.4539  -10.8075 C.3       7 UNK         0.0273 
     46 CB         25.6784    3.6489  -10.9081 C.3       7 UNK        -0.1935 
     47 C          27.6821    2.4503  -11.8728 C.2       7 UNK         0.5018 
     48 O          27.8002    2.8365  -13.0365 O.2       7 UNK        -0.5186 
     49 N          27.9264    1.1936  -11.4762 N.am      8 UNK        -0.4240 
     50 CA         28.3209    0.1016  -12.3684 C.3       8 UNK         0.0235 
     51 CB         27.4229   -1.1191  -12.1021 C.3       8 UNK        -0.2000 
     52 C          29.7976   -0.2700  -12.1856 C.2       8 UNK         0.4941 
     53 O          30.5162   -0.4019  -13.1767 O.2       8 UNK        -0.5273 
     54 N          30.2225   -0.4420  -10.9276 N.am      9 UNK        -0.4262 
     55 CA         31.5657   -0.8872  -10.5528 C.3       9 UNK         0.0264 
     56 CB         31.4740   -1.6403   -9.2151 C.3       9 UNK        -0.1955 
     57 C          32.5899    0.2563  -10.4592 C.2       9 UNK         0.5031 
     58 O          33.7832   -0.0299  -10.3562 O.2       9 UNK        -0.5390 
     59 N          32.1195    1.5144  -10.4622 N.am      10 UNK        -0.4204 
     60 CA         32.8924    2.7580  -10.3148 C.3       10 UNK         0.0237 
     61 CB         33.9071    2.9280  -11.4667 C.3       10 UNK        -0.1985 
     62 C          33.5418    2.9371   -8.9254 C.2       10 UNK         0.4970 
     63 O          34.4096    3.7983   -8.7738 O.2       10 UNK        -0.4914 
     64 N          33.1095    2.1454   -7.9346 N.am      11 UNK        -0.4285 
     65 CA         33.6056    2.1655   -6.5505 C.3       11 UNK         0.1007 
     66 C          33.0049    3.2834   -5.6472 C.2       11 UNK         0.5703 
     67 N          32.1314    4.1483   -6.1488 N.am      11 UNK        -0.7361 
     68 O          33.3568    3.3838   -4.4742 O.2       11 UNK        -0.4986 
     69 C69        33.5428    0.7552   -5.9058 C.3       12 UNK        -0.0947 
     70 S70        31.8686    0.0421   -5.7655 S.3       12 UNK        -0.2240 
     71 C71        32.3205   -1.6618   -5.3132 C.3       12 UNK         0.0194 
     72 H72        24.0917   -5.0170   -3.9986 H         1 UNK         0.0906 
     73 H73        25.4567   -3.9037   -3.8937 H         1 UNK         0.0906 
     74 H74        25.6821   -5.5146   -4.5798 H         1 UNK         0.0906 
     75 H75        26.0160   -3.6718   -1.7427 H         1 UNK         0.3140 
     76 H76        26.1500   -6.0715    0.0465 H         1 UNK         0.1085 
     77 H77        27.7697   -3.5353    0.5267 H         1 UNK         0.0836 
     78 H78        27.9646   -5.1048    1.2341 H         1 UNK         0.0836 
     79 H79        28.5056   -2.6974   -1.4142 H         1 UNK         0.0731 
     80 H80        30.1744   -2.9211   -0.9596 H         1 UNK         0.0731 
     81 H81        31.4425   -2.0468   -2.7655 H         1 UNK         0.1312 
     82 H82        30.5451   -3.0605   -6.8279 H         1 UNK         0.1406 
     83 H83        28.0471   -4.5088   -3.6572 H         1 UNK         0.1631 
     84 H84        27.9993   -5.5324   -5.9720 H         1 UNK         0.0717 
     85 H85        28.8519   -4.7696   -7.2868 H         1 UNK         0.0717 
     86 H86        28.5623   -2.3544   -7.8544 H         1 UNK         0.0934 
     87 H87        27.0353   -2.1587   -8.6515 H         1 UNK         0.0934 
     88 H88        26.2225   -0.5760   -7.0266 H         1 UNK         0.0739 
     89 H89        28.3305   -1.5438   -5.2772 H         1 UNK         0.3093 
     90 H90        28.0388   -1.2283   -3.0613 H         1 UNK         0.0818 
     91 H91        29.4370    0.5617   -2.0200 H         1 UNK         0.0819 
     92 H92        29.7590    0.4393   -3.7387 H         1 UNK         0.0819 
     93 H93        28.7628    1.7535   -3.1332 H         1 UNK         0.0819 
     94 H94        26.7066    1.1391   -1.9054 H         1 UNK         0.3041 
     95 H95        25.5980    0.3636    0.1984 H         1 UNK         0.0784 
     96 H96        24.5260    1.8102   -1.4453 H         1 UNK         0.0793 
     97 H97        23.4200    0.5488   -1.9502 H         1 UNK         0.0793 
     98 H98        23.2775    1.2604   -0.3427 H         1 UNK         0.0793 
     99 H99        24.7373   -1.4811    1.0570 H         1 UNK         0.3024 
    100 H100       23.0971   -2.9487    1.7256 H         1 UNK         0.1171 
    101 H101       20.8039   -3.0476    0.7295 H         1 UNK         0.0786 
    102 H102       21.3983   -4.6562    1.1106 H         1 UNK         0.0786 
    103 H103       21.3863   -4.0934   -0.5589 H         1 UNK         0.0786 
    104 H104       23.8096   -4.6411   -0.6321 H         1 UNK         0.2977 
    105 H105       27.5787    1.6094   -6.2208 H         1 UNK         0.3127 
    106 H106       29.9825    2.3138   -7.3699 H         1 UNK         0.0770 
    107 H107       27.6768    4.1192   -6.4660 H         1 UNK         0.0814 
    108 H108       29.3180    4.6758   -6.7534 H         1 UNK         0.0814 
    109 H109       29.0043    3.5194   -5.4705 H         1 UNK         0.0814 
    110 H110       26.7909    2.7310   -8.8499 H         1 UNK         0.2983 
    111 H111       27.6817    4.4102  -11.0256 H         1 UNK         0.0947 
    112 H112       25.3906    3.9658  -11.9116 H         1 UNK         0.0806 
    113 H113       25.3293    4.4161  -10.2167 H         1 UNK         0.0806 
    114 H114       25.1374    2.7270  -10.6905 H         1 UNK         0.0806 
    115 H115       27.8643    0.9754  -10.4876 H         1 UNK         0.3000 
    116 H116       28.1821    0.3930  -13.4119 H         1 UNK         0.0850 
    117 H117       27.6968   -1.9540  -12.7486 H         1 UNK         0.0810 
    118 H118       26.3759   -0.8881  -12.2986 H         1 UNK         0.0810 
    119 H119       27.5000   -1.4654  -11.0708 H         1 UNK         0.0810 
    120 H120       29.5661   -0.2986  -10.1596 H         1 UNK         0.3040 
    121 H121       31.9328   -1.5858  -11.3079 H         1 UNK         0.0766 
    122 H122       32.4552   -1.9852   -8.8861 H         1 UNK         0.0812 
    123 H123       30.8351   -2.5190   -9.3026 H         1 UNK         0.0812 
    124 H124       31.0671   -1.0087   -8.4257 H         1 UNK         0.0812 
    125 H125       31.1183    1.6397  -10.5345 H         1 UNK         0.3205 
    126 H126       32.1738    3.5719  -10.4087 H         1 UNK         0.0754 
    127 H127       34.3493    3.9249  -11.4548 H         1 UNK         0.0769 
    128 H128       33.4292    2.8001  -12.4380 H         1 UNK         0.0769 
    129 H129       34.7263    2.2118  -11.3980 H         1 UNK         0.0769 
    130 H130       32.3878    1.4697   -8.1312 H         1 UNK         0.2981 
    131 H131       34.6673    2.4135   -6.6029 H         1 UNK         0.0541 
    132 H132       31.8668    4.1031   -7.1185 H         1 UNK         0.3459 
    133 H133       31.7666    4.8751   -5.5545 H         1 UNK         0.3459 
    134 H134       33.9959    0.7691   -4.9129 H         1 UNK         0.0612 
    135 H135       34.1527    0.0692   -6.4961 H         1 UNK         0.0612 
    136 H136       32.7862   -2.1493   -6.1711 H         1 UNK         0.0624 
    137 H137       33.0757   -1.6379   -4.5259 H         1 UNK         0.0624 
@<TRIPOS>BOND
     1    1    2 1    
     2    1   72 1    
     3    1   73 1    
     4    1   74 1    
     5    2    3 2    
     6    2    4 am   BACKBONE|DICT|INTERRES
     7    4    5 1    
     8    4   75 1    
     9    5    6 1    
    10    5   35 1    
    11    5   76 1    
    12    6    7 1    
    13    6   77 1    
    14    6   78 1    
    15    7    8 1    
    16    8    9 1    
    17    8   79 1    
    18    8   80 1    
    19    9   10 ar   
    20    9   14 ar   
    21   10   11 ar   
    22   10   81 1    
    23   11   12 ar   
    24   11   71 1    
    25   12   13 ar   
    26   12   82 1    
    27   13   14 ar   
    28   13   15 1    
    29   14   83 1    
    30   15   16 1    
    31   15   84 1    
    32   15   85 1    
    33   16   17 1    
    34   17   18 1    
    35   17   86 1    
    36   17   87 1    
    37   18   19 1    
    38   18   37 1    
    39   18   88 1    
    40   19   20 am   BACKBONE|DICT|INTERRES
    41   19   89 1    
    42   20   21 2    
    43   20   22 1    
    44   22   23 1    
    45   22   24 1    
    46   22   90 1    
    47   23   91 1    
    48   23   92 1    
    49   23   93 1    
    50   24   25 am   BACKBONE|DICT|INTERRES
    51   24   94 1    
    52   25   26 2    
    53   25   27 1    
    54   27   28 1    
    55   27   29 1    
    56   27   95 1    
    57   28   96 1    
    58   28   97 1    
    59   28   98 1    
    60   29   30 am   BACKBONE|DICT|INTERRES
    61   29   99 1    
    62   30   31 2    
    63   30   32 1    
    64   32   33 1    
    65   32   34 1    
    66   32  100 1    
    67   33  101 1    
    68   33  102 1    
    69   33  103 1    
    70   34   35 am   BACKBONE|DICT|INTERRES
    71   34  104 1    
    72   35   36 2    
    73   37   38 2    
    74   37   39 am   BACKBONE|DICT|INTERRES
    75   39   40 1    
    76   39  105 1    
    77   40   41 1    
    78   40   42 1    
    79   40  106 1    
    80   41  107 1    
    81   41  108 1    
    82   41  109 1    
    83   42   43 2    
    84   42   44 am   BACKBONE|DICT|INTERRES
    85   44   45 1    
    86   44  110 1    
    87   45   46 1    
    88   45   47 1    
    89   45  111 1    
    90   46  112 1    
    91   46  113 1    
    92   46  114 1    
    93   47   48 2    
    94   47   49 am   BACKBONE|DICT|INTERRES
    95   49   50 1    
    96   49  115 1    
    97   50   51 1    
    98   50   52 1    
    99   50  116 1    
   100   51  117 1    
   101   51  118 1    
   102   51  119 1    
   103   52   53 2    
   104   52   54 am   BACKBONE|DICT|INTERRES
   105   54   55 1    
   106   54  120 1    
   107   55   56 1    
   108   55   57 1    
   109   55  121 1    
   110   56  122 1    
   111   56  123 1    
   112   56  124 1    
   113   57   58 2    
   114   57   59 am   BACKBONE|DICT|INTERRES
   115   59   60 1    
   116   59  125 1    
   117   60   61 1    
   118   60   62 1    
   119   60  126 1    
   120   61  127 1    
   121   61  128 1    
   122   61  129 1    
   123   62   63 2    
   124   62   64 am   BACKBONE|DICT|INTERRES
   125   64   65 1    
   126   64  130 1    
   127   65   66 1    
   128   65   69 1    
   129   65  131 1    
   130   66   67 am   BACKBONE|DICT|INTERRES
   131   66   68 2    
   132   67  132 1    
   133   67  133 1    
   134   69   70 1    
   135   69  134 1    
   136   69  135 1    
   137   70   71 1    
   138   71  136 1    
   139   71  137 1    
@<TRIPOS>SUBSTRUCTURE
     1 UNK         1 GROUP             0       ****    0 ROOT    
