@<TRIPOS>MOLECULE
3R137
137   139    1
SMALL
USER_CHARGES


@<TRIPOS>ATOM
      1 CA         27.2863   -6.0107    0.7418 C.3       0 UNK        -0.2020 
      2 C          27.4125   -4.4949    0.7711 C.2       0 UNK         0.4855 
      3 O          26.8758   -3.8531    1.6743 O.2       0 UNK        -0.5197 
      4 N          28.1204   -3.9200   -0.2100 N.am      1 UNK        -0.4892 
      5 CA         28.3367   -2.4731   -0.3544 C.3       1 UNK         0.0835 
      6 C6         29.4948   -2.1611   -1.3326 C.3       12 UNK        -0.0855 
      7 S7         31.1151   -2.7339   -0.7034 S.3       12 UNK        -0.2931 
      8 C8         31.3521   -4.3593   -1.5027 C.3       12 UNK         0.0378 
      9 C9         31.3536   -4.2616   -3.0207 C.ar      12 UNK        -0.0802 
     10 C10        32.4318   -3.6723   -3.6869 C.ar      12 UNK        -0.0944 
     11 C11        32.4081   -3.5186   -5.0760 C.ar      12 UNK        -0.0787 
     12 C12        31.3006   -3.9691   -5.8007 C.ar      12 UNK        -0.0862 
     13 C13        30.2193   -4.5670   -5.1450 C.ar      12 UNK        -0.0733 
     14 C14        30.2625   -4.7314   -3.7577 C.ar      12 UNK        -0.0832 
     15 C15        28.9770   -4.9749   -5.9287 C.3       12 UNK         0.0240 
     16 S16        27.4716   -4.1213   -5.3414 S.3       12 UNK        -0.2522 
     17 C17        27.9648   -2.3664   -5.4306 C.3       12 UNK        -0.0967 
     18 CA         27.2661   -1.6008   -6.5757 C.3       5 UNK         0.0660 
     19 N          25.8089   -1.5556   -6.4316 N.am      5 UNK        -0.4015 
     20 C          24.9626   -1.1385   -7.3846 C.2       4 UNK         0.4946 
     21 O          25.3166   -0.7896   -8.5096 O.2       4 UNK        -0.5353 
     22 CA         23.4757   -1.0421   -7.0049 C.3       4 UNK         0.0277 
     23 CB         22.8045   -2.4225   -7.0836 C.3       4 UNK        -0.1981 
     24 N          23.2737   -0.4685   -5.6730 N.am      4 UNK        -0.4209 
     25 C          23.6208    0.7787   -5.3202 C.2       3 UNK         0.4942 
     26 O          24.0626    1.6137   -6.1079 O.2       3 UNK        -0.5208 
     27 CA         23.5074    1.1374   -3.8270 C.3       3 UNK         0.0250 
     28 CB         22.1313    1.7506   -3.5237 C.3       3 UNK        -0.1990 
     29 N          23.7475   -0.0011   -2.9319 N.am      3 UNK        -0.4232 
     30 C          24.8878   -0.7046   -2.8770 C.2       2 UNK         0.4993 
     31 O          25.8774   -0.4570   -3.5709 O.2       2 UNK        -0.5286 
     32 CA         24.8660   -1.9445   -1.9672 C.3       2 UNK         0.0209 
     33 CB         24.1554   -3.1079   -2.6813 C.3       2 UNK        -0.1931 
     34 N          26.1950   -2.4025   -1.5580 N.am      2 UNK        -0.4546 
     35 C          27.0441   -1.7328   -0.7651 C.2       1 UNK         0.5154 
     36 O          26.8233   -0.6051   -0.3202 O.2       1 UNK        -0.5181 
     37 C          27.8537   -0.1851   -6.6925 C.2       5 UNK         0.5014 
     38 O          28.6957    0.0452   -7.5609 O.2       5 UNK        -0.5248 
     39 N          27.3819    0.7421   -5.8459 N.am      6 UNK        -0.4434 
     40 CA         27.7721    2.1552   -5.8694 C.3       6 UNK         0.0363 
     41 CB         27.1204    2.8932   -4.6903 C.3       6 UNK        -0.1936 
     42 C          27.4426    2.8559   -7.2019 C.2       6 UNK         0.5081 
     43 O          28.2081    3.7162   -7.6351 O.2       6 UNK        -0.5248 
     44 N          26.3288    2.4650   -7.8340 N.am      7 UNK        -0.4718 
     45 CA         25.9299    2.9226   -9.1622 C.3       7 UNK         0.0273 
     46 CB         24.4195    2.7002   -9.3491 C.3       7 UNK        -0.1935 
     47 C          26.7302    2.2408  -10.2854 C.2       7 UNK         0.5018 
     48 O          27.2796    2.9393  -11.1383 O.2       7 UNK        -0.5186 
     49 N          26.7448    0.8997  -10.2983 N.am      8 UNK        -0.4240 
     50 CA         27.2742    0.1014  -11.4073 C.3       8 UNK         0.0235 
     51 CB         26.6455   -1.3019  -11.3830 C.3       8 UNK        -0.2000 
     52 C          28.8057   -0.0019  -11.4286 C.2       8 UNK         0.4941 
     53 O          29.4006    0.1664  -12.4942 O.2       8 UNK        -0.5273 
     54 N          29.4116   -0.3140  -10.2765 N.am      9 UNK        -0.4262 
     55 CA         30.8512   -0.5462  -10.1403 C.3       9 UNK         0.0264 
     56 CB         31.0971   -1.7461   -9.2070 C.3       9 UNK        -0.1955 
     57 C          31.5746    0.6954   -9.6088 C.2       9 UNK         0.5031 
     58 O          32.6741    0.9952  -10.0785 O.2       9 UNK        -0.5390 
     59 N          30.9621    1.3747   -8.6275 N.am      10 UNK        -0.4204 
     60 CA         31.4698    2.5116   -7.8475 C.3       10 UNK         0.0237 
     61 CB         31.7864    3.7349   -8.7312 C.3       10 UNK        -0.1985 
     62 C          32.6463    2.1295   -6.9339 C.2       10 UNK         0.4970 
     63 O          32.5167    2.2597   -5.7170 O.2       10 UNK        -0.4914 
     64 N          33.7376    1.6454   -7.5438 N.am      11 UNK        -0.4285 
     65 CA         34.9367    1.0270   -6.9477 C.3       11 UNK         0.1007 
     66 C          35.6245    1.7773   -5.7647 C.2       11 UNK         0.5703 
     67 N          35.4852    3.0932   -5.6584 N.am      11 UNK        -0.7361 
     68 O          36.3336    1.1762   -4.9605 O.2       11 UNK        -0.4986 
     69 C69        34.7806   -0.5112   -6.7517 C.3       12 UNK        -0.0947 
     70 S70        33.4340   -1.0288   -5.6382 S.3       12 UNK        -0.2240 
     71 C71        33.5638   -2.8349   -5.7878 C.3       12 UNK         0.0194 
     72 H72        27.6997   -6.4387    1.6547 H         1 UNK         0.0906 
     73 H73        26.2373   -6.2982    0.6756 H         1 UNK         0.0906 
     74 H74        27.8121   -6.4495   -0.1059 H         1 UNK         0.0906 
     75 H75        28.5500   -4.4999   -0.9139 H         1 UNK         0.3140 
     76 H76        28.6143   -2.0819    0.6274 H         1 UNK         0.1085 
     77 H77        29.2946   -2.5736   -2.3217 H         1 UNK         0.0836 
     78 H78        29.5807   -1.0824   -1.4789 H         1 UNK         0.0836 
     79 H79        32.3048   -4.7752   -1.1716 H         1 UNK         0.0731 
     80 H80        30.5861   -5.0531   -1.1555 H         1 UNK         0.0731 
     81 H81        33.2751   -3.3014   -3.1199 H         1 UNK         0.1312 
     82 H82        31.2704   -3.8291   -6.8725 H         1 UNK         0.1406 
     83 H83        29.4202   -5.1832   -3.2523 H         1 UNK         0.1631 
     84 H84        28.8335   -6.0523   -5.8383 H         1 UNK         0.0717 
     85 H85        29.1024   -4.7672   -6.9926 H         1 UNK         0.0717 
     86 H86        27.7499   -1.9116   -4.4633 H         1 UNK         0.0934 
     87 H87        29.0461   -2.2889   -5.5456 H         1 UNK         0.0934 
     88 H88        27.4879   -2.1188   -7.5115 H         1 UNK         0.0739 
     89 H89        25.4494   -1.7730   -5.5140 H         1 UNK         0.3093 
     90 H90        22.9919   -0.3832   -7.7293 H         1 UNK         0.0818 
     91 H91        21.7324   -2.3534   -6.8986 H         1 UNK         0.0819 
     92 H92        22.9322   -2.8603   -8.0748 H         1 UNK         0.0819 
     93 H93        23.2261   -3.1232   -6.3617 H         1 UNK         0.0819 
     94 H94        22.8954   -1.0777   -4.9633 H         1 UNK         0.3041 
     95 H95        24.2695    1.8882   -3.6111 H         1 UNK         0.0784 
     96 H96        21.9408    2.6143   -4.1626 H         1 UNK         0.0793 
     97 H97        21.3232    1.0373   -3.6910 H         1 UNK         0.0793 
     98 H98        22.0684    2.0949   -2.4912 H         1 UNK         0.0793 
     99 H99        22.9773   -0.2743   -2.3378 H         1 UNK         0.3024 
    100 H100       24.3122   -1.6908   -1.0602 H         1 UNK         0.1171 
    101 H101       23.1383   -2.8387   -2.9687 H         1 UNK         0.0786 
    102 H102       24.0808   -3.9826   -2.0346 H         1 UNK         0.0786 
    103 H103       24.6833   -3.4080   -3.5879 H         1 UNK         0.0786 
    104 H104       26.4728   -3.3187   -1.8759 H         1 UNK         0.2977 
    105 H105       26.7236    0.4524   -5.1271 H         1 UNK         0.3127 
    106 H106       28.8544    2.1916   -5.7330 H         1 UNK         0.0770 
    107 H107       26.0380    2.9502   -4.8005 H         1 UNK         0.0814 
    108 H108       27.4919    3.9164   -4.6223 H         1 UNK         0.0814 
    109 H109       27.3384    2.4033   -3.7409 H         1 UNK         0.0814 
    110 H110       25.7084    1.8132   -7.3654 H         1 UNK         0.2983 
    111 H111       26.1181    3.9968   -9.2276 H         1 UNK         0.0947 
    112 H112       24.0930    3.0379  -10.3336 H         1 UNK         0.0806 
    113 H113       23.8450    3.2562   -8.6078 H         1 UNK         0.0806 
    114 H114       24.1476    1.6482   -9.2564 H         1 UNK         0.0806 
    115 H115       26.2561    0.3889   -9.5640 H         1 UNK         0.3000 
    116 H116       26.9674    0.5790  -12.3408 H         1 UNK         0.0850 
    117 H117       26.9880   -1.8987  -12.2294 H         1 UNK         0.0810 
    118 H118       25.5582   -1.2499  -11.4414 H         1 UNK         0.0810 
    119 H119       26.9042   -1.8464  -10.4739 H         1 UNK         0.0810 
    120 H120       28.8639   -0.3552   -9.4217 H         1 UNK         0.3040 
    121 H121       31.2835   -0.7916  -11.1129 H         1 UNK         0.0766 
    122 H122       32.1640   -1.9552   -9.1166 H         1 UNK         0.0812 
    123 H123       30.6210   -2.6490   -9.5893 H         1 UNK         0.0812 
    124 H124       30.7184   -1.5688   -8.1998 H         1 UNK         0.0812 
    125 H125       30.0866    0.9827   -8.2825 H         1 UNK         0.3205 
    126 H126       30.6523    2.7999   -7.1877 H         1 UNK         0.0754 
    127 H127       32.0766    4.5893   -8.1185 H         1 UNK         0.0769 
    128 H128       30.9118    4.0347   -9.3091 H         1 UNK         0.0769 
    129 H129       32.6010    3.5468   -9.4305 H         1 UNK         0.0769 
    130 H130       33.6712    1.5616   -8.5545 H         1 UNK         0.2981 
    131 H131       35.6815    1.1286   -7.7377 H         1 UNK         0.0541 
    132 H132       34.9012    3.5971   -6.3060 H         1 UNK         0.3459 
    133 H133       35.9413    3.5790   -4.9026 H         1 UNK         0.3459 
    134 H134       35.7143   -0.9531   -6.3996 H         1 UNK         0.0612 
    135 H135       34.5915   -0.9699   -7.7236 H         1 UNK         0.0612 
    136 H136       33.5772   -3.1124   -6.8430 H         1 UNK         0.0624 
    137 H137       34.5129   -3.1671   -5.3644 H         1 UNK         0.0624 
@<TRIPOS>BOND
     1    1    2 1    
     2    1   72 1    
     3    1   73 1    
     4    1   74 1    
     5    2    3 2    
     6    2    4 am   BACKBONE|DICT|INTERRES
     7    4    5 1    
     8    4   75 1    
     9    5    6 1    
    10    5   35 1    
    11    5   76 1    
    12    6    7 1    
    13    6   77 1    
    14    6   78 1    
    15    7    8 1    
    16    8    9 1    
    17    8   79 1    
    18    8   80 1    
    19    9   10 ar   
    20    9   14 ar   
    21   10   11 ar   
    22   10   81 1    
    23   11   12 ar   
    24   11   71 1    
    25   12   13 ar   
    26   12   82 1    
    27   13   14 ar   
    28   13   15 1    
    29   14   83 1    
    30   15   16 1    
    31   15   84 1    
    32   15   85 1    
    33   16   17 1    
    34   17   18 1    
    35   17   86 1    
    36   17   87 1    
    37   18   19 1    
    38   18   37 1    
    39   18   88 1    
    40   19   20 am   BACKBONE|DICT|INTERRES
    41   19   89 1    
    42   20   21 2    
    43   20   22 1    
    44   22   23 1    
    45   22   24 1    
    46   22   90 1    
    47   23   91 1    
    48   23   92 1    
    49   23   93 1    
    50   24   25 am   BACKBONE|DICT|INTERRES
    51   24   94 1    
    52   25   26 2    
    53   25   27 1    
    54   27   28 1    
    55   27   29 1    
    56   27   95 1    
    57   28   96 1    
    58   28   97 1    
    59   28   98 1    
    60   29   30 am   BACKBONE|DICT|INTERRES
    61   29   99 1    
    62   30   31 2    
    63   30   32 1    
    64   32   33 1    
    65   32   34 1    
    66   32  100 1    
    67   33  101 1    
    68   33  102 1    
    69   33  103 1    
    70   34   35 am   BACKBONE|DICT|INTERRES
    71   34  104 1    
    72   35   36 2    
    73   37   38 2    
    74   37   39 am   BACKBONE|DICT|INTERRES
    75   39   40 1    
    76   39  105 1    
    77   40   41 1    
    78   40   42 1    
    79   40  106 1    
    80   41  107 1    
    81   41  108 1    
    82   41  109 1    
    83   42   43 2    
    84   42   44 am   BACKBONE|DICT|INTERRES
    85   44   45 1    
    86   44  110 1    
    87   45   46 1    
    88   45   47 1    
    89   45  111 1    
    90   46  112 1    
    91   46  113 1    
    92   46  114 1    
    93   47   48 2    
    94   47   49 am   BACKBONE|DICT|INTERRES
    95   49   50 1    
    96   49  115 1    
    97   50   51 1    
    98   50   52 1    
    99   50  116 1    
   100   51  117 1    
   101   51  118 1    
   102   51  119 1    
   103   52   53 2    
   104   52   54 am   BACKBONE|DICT|INTERRES
   105   54   55 1    
   106   54  120 1    
   107   55   56 1    
   108   55   57 1    
   109   55  121 1    
   110   56  122 1    
   111   56  123 1    
   112   56  124 1    
   113   57   58 2    
   114   57   59 am   BACKBONE|DICT|INTERRES
   115   59   60 1    
   116   59  125 1    
   117   60   61 1    
   118   60   62 1    
   119   60  126 1    
   120   61  127 1    
   121   61  128 1    
   122   61  129 1    
   123   62   63 2    
   124   62   64 am   BACKBONE|DICT|INTERRES
   125   64   65 1    
   126   64  130 1    
   127   65   66 1    
   128   65   69 1    
   129   65  131 1    
   130   66   67 am   BACKBONE|DICT|INTERRES
   131   66   68 2    
   132   67  132 1    
   133   67  133 1    
   134   69   70 1    
   135   69  134 1    
   136   69  135 1    
   137   70   71 1    
   138   71  136 1    
   139   71  137 1    
@<TRIPOS>SUBSTRUCTURE
     1 UNK         1 GROUP             0       ****    0 ROOT    
