@<TRIPOS>MOLECULE
3R137
137   139    1
SMALL
USER_CHARGES


@<TRIPOS>ATOM
      1 CA         24.8733   -1.2042    1.0667 C.3       0 UNK        -0.2020 
      2 C          26.1943   -0.9529    0.3574 C.2       0 UNK         0.4855 
      3 O          26.6021    0.2000    0.2115 O.2       0 UNK        -0.5197 
      4 N          26.8747   -2.0180   -0.0860 N.am      1 UNK        -0.4892 
      5 CA         28.1548   -1.9387   -0.7946 C.3       1 UNK         0.0835 
      6 C6         28.8897   -3.3000   -0.8635 C.3       12 UNK        -0.0855 
      7 S7         27.9073   -4.6878   -1.5347 S.3       12 UNK        -0.2931 
      8 C8         29.2223   -5.7823   -2.1664 C.3       12 UNK         0.0378 
      9 C9         29.7906   -5.2642   -3.4786 C.ar      12 UNK        -0.0802 
     10 C10        30.9836   -4.5371   -3.5029 C.ar      12 UNK        -0.0944 
     11 C11        31.4667   -4.0069   -4.7023 C.ar      12 UNK        -0.0787 
     12 C12        30.7548   -4.2177   -5.8862 C.ar      12 UNK        -0.0862 
     13 C13        29.5669   -4.9552   -5.8776 C.ar      12 UNK        -0.0733 
     14 C14        29.1037   -5.4946   -4.6722 C.ar      12 UNK        -0.0832 
     15 C15        28.7892   -5.1498   -7.1746 C.3       12 UNK         0.0240 
     16 S16        26.9888   -4.9105   -6.9978 S.3       12 UNK        -0.2522 
     17 C17        26.8816   -3.3458   -6.0598 C.3       12 UNK        -0.0967 
     18 CA         25.4780   -2.7091   -6.1983 C.3       5 UNK         0.0660 
     19 N          25.0892   -1.9731   -4.9934 N.am      5 UNK        -0.4015 
     20 C          23.8231   -1.6446   -4.7001 C.2       4 UNK         0.4946 
     21 O          22.8674   -1.8610   -5.4475 O.2       4 UNK        -0.5353 
     22 CA         23.5597   -1.0128   -3.3279 C.3       4 UNK         0.0277 
     23 CB         23.5644   -2.0944   -2.2347 C.3       4 UNK        -0.1981 
     24 N          24.5406    0.0222   -3.0020 N.am      4 UNK        -0.4209 
     25 C          24.3244    1.3388   -3.1381 C.2       3 UNK         0.4942 
     26 O          23.2687    1.8185   -3.5539 O.2       3 UNK        -0.5208 
     27 CA         25.4566    2.2981   -2.7268 C.3       3 UNK         0.0250 
     28 CB         25.1576    2.9298   -1.3572 C.3       3 UNK        -0.1990 
     29 N          26.7704    1.6515   -2.6905 N.am      3 UNK        -0.4232 
     30 C          27.5015    1.3961   -3.7862 C.2       2 UNK         0.4993 
     31 O          27.1674    1.7467   -4.9157 O.2       2 UNK        -0.5286 
     32 CA         28.8185    0.6170   -3.6063 C.3       2 UNK         0.0209 
     33 CB         29.9962    1.6033   -3.5275 C.3       2 UNK        -0.1931 
     34 N          28.8511   -0.2547   -2.4268 N.am      2 UNK        -0.4546 
     35 C          27.9942   -1.2526   -2.1684 C.2       1 UNK         0.5154 
     36 O          27.0725   -1.5767   -2.9249 O.2       1 UNK        -0.5181 
     37 C          25.3761   -1.8496   -7.4723 C.2       5 UNK         0.5014 
     38 O          25.6871   -0.6565   -7.4437 O.2       5 UNK        -0.5248 
     39 N          25.0117   -2.5023   -8.5856 N.am      6 UNK        -0.4434 
     40 CA         24.8798   -1.9160   -9.9249 C.3       6 UNK         0.0363 
     41 CB         24.2521   -2.9570  -10.8664 C.3       6 UNK        -0.1936 
     42 C          26.1947   -1.3763  -10.5206 C.2       6 UNK         0.5081 
     43 O          26.1436   -0.5845  -11.4619 O.2       6 UNK        -0.5248 
     44 N          27.3411   -1.7912   -9.9606 N.am      7 UNK        -0.4718 
     45 CA         28.6704   -1.2530  -10.2654 C.3       7 UNK         0.0273 
     46 CB         29.7339   -2.0951   -9.5415 C.3       7 UNK        -0.1935 
     47 C          28.8262    0.2328   -9.8917 C.2       7 UNK         0.5018 
     48 O          29.6116    0.9314  -10.5351 O.2       7 UNK        -0.5186 
     49 N          28.0782    0.6868   -8.8722 N.am      8 UNK        -0.4240 
     50 CA         28.0348    2.0577   -8.3582 C.3       8 UNK         0.0235 
     51 CB         27.2197    2.9508   -9.3223 C.3       8 UNK        -0.2000 
     52 C          29.4433    2.5923   -8.0281 C.2       8 UNK         0.4941 
     53 O          30.1651    1.9599   -7.2553 O.2       8 UNK        -0.5273 
     54 N          29.8295    3.7091   -8.6594 N.am      9 UNK        -0.4262 
     55 CA         31.1241    4.3793   -8.5176 C.3       9 UNK         0.0264 
     56 CB         31.0780    5.7122   -9.2839 C.3       9 UNK        -0.1955 
     57 C          32.3499    3.5500   -8.9507 C.2       9 UNK         0.5031 
     58 O          33.4674    3.9394   -8.6075 O.2       9 UNK        -0.5390 
     59 N          32.1532    2.4372   -9.6779 N.am      10 UNK        -0.4204 
     60 CA         33.2273    1.4958  -10.0121 C.3       10 UNK         0.0237 
     61 CB         32.7906    0.5766  -11.1635 C.3       10 UNK        -0.1985 
     62 C          33.6988    0.6720   -8.7985 C.2       10 UNK         0.4970 
     63 O          34.8382    0.2042   -8.8109 O.2       10 UNK        -0.4914 
     64 N          32.8449    0.5208   -7.7751 N.am      11 UNK        -0.4285 
     65 CA         33.2276   -0.0152   -6.4659 C.3       11 UNK         0.1007 
     66 C          33.8806    1.1131   -5.6200 C.2       11 UNK         0.5703 
     67 N          35.1035    0.9134   -5.1464 N.am      11 UNK        -0.7361 
     68 O          33.2783    2.1556   -5.3731 O.2       11 UNK        -0.4986 
     69 C69        32.0130   -0.6773   -5.7650 C.3       12 UNK        -0.0947 
     70 S70        32.4551   -1.4831   -4.1861 S.3       12 UNK        -0.2240 
     71 C71        32.7535   -3.1991   -4.7066 C.3       12 UNK         0.0194 
     72 H72        24.1048   -0.5373    0.6769 H         1 UNK         0.0906 
     73 H73        24.5316   -2.2311    0.9383 H         1 UNK         0.0906 
     74 H74        24.9801   -1.0101    2.1335 H         1 UNK         0.0906 
     75 H75        26.4935   -2.9486    0.0133 H         1 UNK         0.3140 
     76 H76        28.7891   -1.2870   -0.1885 H         1 UNK         0.1085 
     77 H77        29.8129   -3.1870   -1.4314 H         1 UNK         0.0836 
     78 H78        29.2046   -3.5861    0.1414 H         1 UNK         0.0836 
     79 H79        28.8088   -6.7806   -2.3173 H         1 UNK         0.0731 
     80 H80        30.0074   -5.8879   -1.4159 H         1 UNK         0.0731 
     81 H81        31.5286   -4.3628   -2.5852 H         1 UNK         0.1312 
     82 H82        31.1242   -3.8017   -6.8134 H         1 UNK         0.1406 
     83 H83        28.1820   -6.0604   -4.6540 H         1 UNK         0.1631 
     84 H84        28.9744   -6.1573   -7.5486 H         1 UNK         0.0717 
     85 H85        29.1496   -4.4665   -7.9425 H         1 UNK         0.0717 
     86 H86        27.0796   -3.5864   -5.0135 H         1 UNK         0.0934 
     87 H87        27.6771   -2.6596   -6.3595 H         1 UNK         0.0934 
     88 H88        24.7487   -3.5182   -6.2887 H         1 UNK         0.0739 
     89 H89        25.8255   -1.7729   -4.3210 H         1 UNK         0.3093 
     90 H90        22.5563   -0.5819   -3.3551 H         1 UNK         0.0818 
     91 H91        22.8873   -2.9110   -2.4893 H         1 UNK         0.0819 
     92 H92        24.5555   -2.5263   -2.0895 H         1 UNK         0.0819 
     93 H93        23.2273   -1.6881   -1.2824 H         1 UNK         0.0819 
     94 H94        25.4576   -0.2969   -2.7110 H         1 UNK         0.3041 
     95 H95        25.4854    3.1031   -3.4647 H         1 UNK         0.0784 
     96 H96        24.2236    3.4926   -1.3853 H         1 UNK         0.0793 
     97 H97        25.0565    2.1770   -0.5754 H         1 UNK         0.0793 
     98 H98        25.9436    3.6233   -1.0578 H         1 UNK         0.0793 
     99 H99        27.0940    1.3231   -1.7887 H         1 UNK         0.3024 
    100 H100       28.9464   -0.0150   -4.4882 H         1 UNK         0.1171 
    101 H101       29.8900    2.2943   -2.6903 H         1 UNK         0.0786 
    102 H102       30.0632    2.2016   -4.4377 H         1 UNK         0.0786 
    103 H103       30.9493    1.0876   -3.4136 H         1 UNK         0.0786 
    104 H104       29.5675   -0.0454   -1.7463 H         1 UNK         0.2977 
    105 H105       24.8134   -3.4907   -8.5134 H         1 UNK         0.3127 
    106 H106       24.1957   -1.0686   -9.8452 H         1 UNK         0.0770 
    107 H107       24.8831   -3.8408  -10.9690 H         1 UNK         0.0814 
    108 H108       24.1072   -2.5432  -11.8655 H         1 UNK         0.0814 
    109 H109       23.2743   -3.2796  -10.5085 H         1 UNK         0.0814 
    110 H110       27.2810   -2.4654   -9.2122 H         1 UNK         0.2983 
    111 H111       28.8312   -1.3375  -11.3424 H         1 UNK         0.0947 
    112 H112       29.7068   -3.1333   -9.8718 H         1 UNK         0.0806 
    113 H113       29.5970   -2.0753   -8.4595 H         1 UNK         0.0806 
    114 H114       30.7379   -1.7227   -9.7448 H         1 UNK         0.0806 
    115 H115       27.4511    0.0379   -8.4092 H         1 UNK         0.3000 
    116 H116       27.4932    2.0143   -7.4146 H         1 UNK         0.0850 
    117 H117       27.0938    3.9581   -8.9230 H         1 UNK         0.0810 
    118 H118       26.2188    2.5443   -9.4695 H         1 UNK         0.0810 
    119 H119       27.6848    3.0298  -10.3059 H         1 UNK         0.0810 
    120 H120       29.1769    4.1306   -9.3043 H         1 UNK         0.3040 
    121 H121       31.2569    4.6000   -7.4563 H         1 UNK         0.0766 
    122 H122       30.9225    5.5575  -10.3524 H         1 UNK         0.0812 
    123 H123       30.2791    6.3562   -8.9159 H         1 UNK         0.0812 
    124 H124       32.0123    6.2635   -9.1679 H         1 UNK         0.0812 
    125 H125       31.2081    2.1627   -9.9296 H         1 UNK         0.3205 
    126 H126       34.0843    2.0753  -10.3624 H         1 UNK         0.0754 
    127 H127       33.6217   -0.0452  -11.4989 H         1 UNK         0.0769 
    128 H128       32.4467    1.1505  -12.0241 H         1 UNK         0.0769 
    129 H129       31.9875   -0.0949  -10.8649 H         1 UNK         0.0769 
    130 H130       31.9487    0.9956   -7.8029 H         1 UNK         0.2981 
    131 H131       33.9679   -0.8025   -6.6235 H         1 UNK         0.0541 
    132 H132       35.6031    0.0592   -5.3379 H         1 UNK         0.3459 
    133 H133       35.5353    1.6325   -4.5878 H         1 UNK         0.3459 
    134 H134       31.5565   -1.4153   -6.4251 H         1 UNK         0.0612 
    135 H135       31.2372    0.0631   -5.5720 H         1 UNK         0.0612 
    136 H136       33.2245   -3.2155   -5.6907 H         1 UNK         0.0624 
    137 H137       33.4690   -3.6528   -4.0193 H         1 UNK         0.0624 
@<TRIPOS>BOND
     1    1    2 1    
     2    1   72 1    
     3    1   73 1    
     4    1   74 1    
     5    2    3 2    
     6    2    4 am   BACKBONE|DICT|INTERRES
     7    4    5 1    
     8    4   75 1    
     9    5    6 1    
    10    5   35 1    
    11    5   76 1    
    12    6    7 1    
    13    6   77 1    
    14    6   78 1    
    15    7    8 1    
    16    8    9 1    
    17    8   79 1    
    18    8   80 1    
    19    9   10 ar   
    20    9   14 ar   
    21   10   11 ar   
    22   10   81 1    
    23   11   12 ar   
    24   11   71 1    
    25   12   13 ar   
    26   12   82 1    
    27   13   14 ar   
    28   13   15 1    
    29   14   83 1    
    30   15   16 1    
    31   15   84 1    
    32   15   85 1    
    33   16   17 1    
    34   17   18 1    
    35   17   86 1    
    36   17   87 1    
    37   18   19 1    
    38   18   37 1    
    39   18   88 1    
    40   19   20 am   BACKBONE|DICT|INTERRES
    41   19   89 1    
    42   20   21 2    
    43   20   22 1    
    44   22   23 1    
    45   22   24 1    
    46   22   90 1    
    47   23   91 1    
    48   23   92 1    
    49   23   93 1    
    50   24   25 am   BACKBONE|DICT|INTERRES
    51   24   94 1    
    52   25   26 2    
    53   25   27 1    
    54   27   28 1    
    55   27   29 1    
    56   27   95 1    
    57   28   96 1    
    58   28   97 1    
    59   28   98 1    
    60   29   30 am   BACKBONE|DICT|INTERRES
    61   29   99 1    
    62   30   31 2    
    63   30   32 1    
    64   32   33 1    
    65   32   34 1    
    66   32  100 1    
    67   33  101 1    
    68   33  102 1    
    69   33  103 1    
    70   34   35 am   BACKBONE|DICT|INTERRES
    71   34  104 1    
    72   35   36 2    
    73   37   38 2    
    74   37   39 am   BACKBONE|DICT|INTERRES
    75   39   40 1    
    76   39  105 1    
    77   40   41 1    
    78   40   42 1    
    79   40  106 1    
    80   41  107 1    
    81   41  108 1    
    82   41  109 1    
    83   42   43 2    
    84   42   44 am   BACKBONE|DICT|INTERRES
    85   44   45 1    
    86   44  110 1    
    87   45   46 1    
    88   45   47 1    
    89   45  111 1    
    90   46  112 1    
    91   46  113 1    
    92   46  114 1    
    93   47   48 2    
    94   47   49 am   BACKBONE|DICT|INTERRES
    95   49   50 1    
    96   49  115 1    
    97   50   51 1    
    98   50   52 1    
    99   50  116 1    
   100   51  117 1    
   101   51  118 1    
   102   51  119 1    
   103   52   53 2    
   104   52   54 am   BACKBONE|DICT|INTERRES
   105   54   55 1    
   106   54  120 1    
   107   55   56 1    
   108   55   57 1    
   109   55  121 1    
   110   56  122 1    
   111   56  123 1    
   112   56  124 1    
   113   57   58 2    
   114   57   59 am   BACKBONE|DICT|INTERRES
   115   59   60 1    
   116   59  125 1    
   117   60   61 1    
   118   60   62 1    
   119   60  126 1    
   120   61  127 1    
   121   61  128 1    
   122   61  129 1    
   123   62   63 2    
   124   62   64 am   BACKBONE|DICT|INTERRES
   125   64   65 1    
   126   64  130 1    
   127   65   66 1    
   128   65   69 1    
   129   65  131 1    
   130   66   67 am   BACKBONE|DICT|INTERRES
   131   66   68 2    
   132   67  132 1    
   133   67  133 1    
   134   69   70 1    
   135   69  134 1    
   136   69  135 1    
   137   70   71 1    
   138   71  136 1    
   139   71  137 1    
@<TRIPOS>SUBSTRUCTURE
     1 UNK         1 GROUP             0       ****    0 ROOT    
