@<TRIPOS>MOLECULE
3R137
137   139    1
SMALL
USER_CHARGES


@<TRIPOS>ATOM
      1 CA         26.4923   -2.7931   -7.2727 C.3       0 UNK        -0.2020 
      2 C          26.3935   -3.2311   -5.8222 C.2       0 UNK         0.4855 
      3 O          25.8577   -2.4910   -4.9961 O.2       0 UNK        -0.5197 
      4 N          26.8938   -4.4346   -5.5111 N.am      1 UNK        -0.4892 
      5 CA         27.0453   -4.9983   -4.1577 C.3       1 UNK         0.0835 
      6 C6         28.1423   -4.2698   -3.3367 C.3       12 UNK        -0.0855 
      7 S7         29.7879   -4.4596   -4.1033 S.3       12 UNK        -0.2931 
      8 C8         30.8753   -4.0372   -2.7076 C.3       12 UNK         0.0378 
      9 C9         30.9593   -2.5319   -2.5144 C.ar      12 UNK        -0.0802 
     10 C10        31.9711   -1.8039   -3.1463 C.ar      12 UNK        -0.0944 
     11 C11        32.0526   -0.4186   -2.9861 C.ar      12 UNK        -0.0787 
     12 C12        31.1120    0.2397   -2.1894 C.ar      12 UNK        -0.0862 
     13 C13        30.0872   -0.4768   -1.5622 C.ar      12 UNK        -0.0733 
     14 C14        30.0247   -1.8646   -1.7164 C.ar      12 UNK        -0.0832 
     15 C15        29.0430    0.2477   -0.7233 C.3       12 UNK         0.0240 
     16 S16        27.4441    0.3971   -1.5894 S.3       12 UNK        -0.2522 
     17 C17        27.8938    1.3861   -3.0564 C.3       12 UNK        -0.0967 
     18 CA         27.7250    0.5614   -4.3661 C.3       5 UNK         0.0660 
     19 N          26.3202    0.2613   -4.6687 N.am      5 UNK        -0.4015 
     20 C          25.3919    1.1476   -5.0578 C.2       4 UNK         0.4946 
     21 O          25.6020    2.3561   -5.1823 O.2       4 UNK        -0.5353 
     22 CA         23.9897    0.6034   -5.3795 C.3       4 UNK         0.0277 
     23 CB         23.9011    0.1857   -6.8565 C.3       4 UNK        -0.1981 
     24 N          23.5533   -0.5130   -4.5342 N.am      4 UNK        -0.4209 
     25 C          23.3655   -0.4447   -3.2075 C.2       3 UNK         0.4942 
     26 O          23.6095    0.5536   -2.5295 O.2       3 UNK        -0.5208 
     27 CA         22.7390   -1.6671   -2.5225 C.3       3 UNK         0.0250 
     28 CB         21.2019   -1.4885   -2.5261 C.3       3 UNK        -0.1990 
     29 N          23.1461   -2.9353   -3.1467 N.am      3 UNK        -0.4232 
     30 C          22.7524   -4.1552   -2.7467 C.2       2 UNK         0.4993 
     31 O          22.0221   -4.3625   -1.7767 O.2       2 UNK        -0.5286 
     32 CA         23.2430   -5.3655   -3.5604 C.3       2 UNK         0.0209 
     33 CB         22.2635   -5.6730   -4.7053 C.3       2 UNK        -0.1931 
     34 N          24.5907   -5.2108   -4.1082 N.am      2 UNK        -0.4546 
     35 C          25.7142   -5.1433   -3.3799 C.2       1 UNK         0.5154 
     36 O          25.7233   -5.2196   -2.1498 O.2       1 UNK        -0.5181 
     37 C          28.4105    1.1677   -5.6124 C.2       5 UNK         0.5014 
     38 O          28.2201    0.6371   -6.7097 O.2       5 UNK        -0.5248 
     39 N          29.1613    2.2676   -5.4558 N.am      6 UNK        -0.4434 
     40 CA         29.9436    2.9368   -6.5042 C.3       6 UNK         0.0363 
     41 CB         30.7733    4.0615   -5.8623 C.3       6 UNK        -0.1936 
     42 C          29.1415    3.4695   -7.7080 C.2       6 UNK         0.5081 
     43 O          29.7505    3.8420   -8.7113 O.2       6 UNK        -0.5248 
     44 N          27.8045    3.4850   -7.6158 N.am      7 UNK        -0.4718 
     45 CA         26.9081    3.7656   -8.7376 C.3       7 UNK         0.0273 
     46 CB         25.5013    4.0714   -8.1994 C.3       7 UNK        -0.1935 
     47 C          26.8580    2.6302   -9.7807 C.2       7 UNK         0.5018 
     48 O          26.4178    2.8895  -10.9020 O.2       7 UNK        -0.5186 
     49 N          27.2923    1.4118   -9.4186 N.am      8 UNK        -0.4240 
     50 CA         27.3111    0.2529  -10.3178 C.3       8 UNK         0.0235 
     51 CB         25.9761   -0.5065  -10.2214 C.3       8 UNK        -0.2000 
     52 C          28.5115   -0.6873  -10.1113 C.2       8 UNK         0.4941 
     53 O          28.9246   -1.3258  -11.0810 O.2       8 UNK        -0.5273 
     54 N          29.0568   -0.7814   -8.8902 N.am      9 UNK        -0.4262 
     55 CA         30.2443   -1.5811   -8.5800 C.3       9 UNK         0.0264 
     56 CB         30.3084   -1.8434   -7.0650 C.3       9 UNK        -0.1955 
     57 C          31.5249   -0.8771   -9.0566 C.2       9 UNK         0.5031 
     58 O          31.5931    0.3555   -9.0550 O.2       9 UNK        -0.5390 
     59 N          32.5364   -1.6742   -9.4219 N.am      10 UNK        -0.4204 
     60 CA         33.8461   -1.2172   -9.8953 C.3       10 UNK         0.0237 
     61 CB         34.4834   -2.3308  -10.7486 C.3       10 UNK        -0.1985 
     62 C          34.7529   -0.7672   -8.7325 C.2       10 UNK         0.4970 
     63 O          35.8008   -1.3713   -8.4953 O.2       10 UNK        -0.4914 
     64 N          34.3209    0.2768   -8.0177 N.am      11 UNK        -0.4285 
     65 CA         35.0257    0.8682   -6.8678 C.3       11 UNK         0.1007 
     66 C          36.3033    1.6798   -7.2323 C.2       11 UNK         0.5703 
     67 N          36.5441    2.0166   -8.4943 N.am      11 UNK        -0.7361 
     68 O          37.0960    2.0034   -6.3509 O.2       11 UNK        -0.4986 
     69 C69        34.0715    1.7124   -5.9837 C.3       12 UNK        -0.0947 
     70 S70        32.6393    0.7565   -5.3897 S.3       12 UNK        -0.2240 
     71 C71        33.1445    0.3665   -3.6920 C.3       12 UNK         0.0194 
     72 H72        26.8412   -1.7624   -7.3176 H         1 UNK         0.0906 
     73 H73        27.1913   -3.4082   -7.8390 H         1 UNK         0.0906 
     74 H74        25.5159   -2.8520   -7.7519 H         1 UNK         0.0906 
     75 H75        27.2974   -4.9982   -6.2469 H         1 UNK         0.3140 
     76 H76        27.3808   -6.0269   -4.3013 H         1 UNK         0.1085 
     77 H77        27.9092   -3.2082   -3.2372 H         1 UNK         0.0836 
     78 H78        28.2006   -4.6712   -2.3235 H         1 UNK         0.0836 
     79 H79        30.5282   -4.5236   -1.7948 H         1 UNK         0.0731 
     80 H80        31.8694   -4.4416   -2.9046 H         1 UNK         0.0731 
     81 H81        32.6892   -2.3132   -3.7747 H         1 UNK         0.1312 
     82 H82        31.1715    1.3129   -2.0709 H         1 UNK         0.1406 
     83 H83        29.2346   -2.4208   -1.2305 H         1 UNK         0.1631 
     84 H84        29.3935    1.2421   -0.4419 H         1 UNK         0.0717 
     85 H85        28.8883   -0.2948    0.2105 H         1 UNK         0.0717 
     86 H86        27.2725    2.2830   -3.0736 H         1 UNK         0.0934 
     87 H87        28.9166    1.7359   -2.9265 H         1 UNK         0.0934 
     88 H88        28.2162   -0.4026   -4.2206 H         1 UNK         0.0739 
     89 H89        26.0691   -0.7258   -4.6586 H         1 UNK         0.3093 
     90 H90        23.2872    1.4242   -5.2193 H         1 UNK         0.0818 
     91 H91        22.8770   -0.0565   -7.1406 H         1 UNK         0.0819 
     92 H92        24.2371    0.9860   -7.5164 H         1 UNK         0.0819 
     93 H93        24.5212   -0.6853   -7.0623 H         1 UNK         0.0819 
     94 H94        23.3012   -1.3621   -5.0161 H         1 UNK         0.3041 
     95 H95        23.0914   -1.6767   -1.4891 H         1 UNK         0.0784 
     96 H96        20.9200   -0.4895   -2.1893 H         1 UNK         0.0793 
     97 H97        20.7837   -1.6245   -3.5240 H         1 UNK         0.0793 
     98 H98        20.7039   -2.1877   -1.8557 H         1 UNK         0.0793 
     99 H99        23.8490   -2.8765   -3.8743 H         1 UNK         0.3024 
    100 H100       23.2566   -6.2232   -2.8837 H         1 UNK         0.1171 
    101 H101       21.2512   -5.8165   -4.3244 H         1 UNK         0.0786 
    102 H102       22.5413   -6.5867   -5.2313 H         1 UNK         0.0786 
    103 H103       22.2251   -4.8627   -5.4344 H         1 UNK         0.0786 
    104 H104       24.6769   -5.1412   -5.1120 H         1 UNK         0.2977 
    105 H105       29.2320    2.6699   -4.5337 H         1 UNK         0.3127 
    106 H106       30.6315    2.1949   -6.9136 H         1 UNK         0.0770 
    107 H107       30.1374    4.8305   -5.4221 H         1 UNK         0.0814 
    108 H108       31.4103    4.5487   -6.6019 H         1 UNK         0.0814 
    109 H109       31.4296    3.6765   -5.0815 H         1 UNK         0.0814 
    110 H110       27.3744    3.1605   -6.7588 H         1 UNK         0.2983 
    111 H111       27.2741    4.6577   -9.2510 H         1 UNK         0.0947 
    112 H112       24.8223    4.3383   -9.0103 H         1 UNK         0.0806 
    113 H113       25.5158    4.9081   -7.5009 H         1 UNK         0.0806 
    114 H114       25.0706    3.2134   -7.6845 H         1 UNK         0.0806 
    115 H115       27.6433    1.2784   -8.4749 H         1 UNK         0.3000 
    116 H116       27.4115    0.6114  -11.3449 H         1 UNK         0.0850 
    117 H117       25.9944   -1.4181  -10.8203 H         1 UNK         0.0810 
    118 H118       25.7481   -0.7893   -9.1959 H         1 UNK         0.0810 
    119 H119       25.1500    0.1034  -10.5872 H         1 UNK         0.0810 
    120 H120       28.6978   -0.2189   -8.1198 H         1 UNK         0.3040 
    121 H121       30.1567   -2.5424   -9.0911 H         1 UNK         0.0766 
    122 H122       30.4316   -0.9191   -6.5011 H         1 UNK         0.0812 
    123 H123       31.1509   -2.4876   -6.8109 H         1 UNK         0.0812 
    124 H124       29.4068   -2.3360   -6.7023 H         1 UNK         0.0812 
    125 H125       32.4132   -2.6742   -9.3502 H         1 UNK         0.3205 
    126 H126       33.7007   -0.3501  -10.5435 H         1 UNK         0.0754 
    127 H127       35.4491   -2.0147  -11.1456 H         1 UNK         0.0769 
    128 H128       33.8540   -2.5860  -11.6014 H         1 UNK         0.0769 
    129 H129       34.6501   -3.2405  -10.1702 H         1 UNK         0.0769 
    130 H130       33.4166    0.6737   -8.2526 H         1 UNK         0.2981 
    131 H131       35.3774    0.0375   -6.2528 H         1 UNK         0.0541 
    132 H132       35.8994    1.7596   -9.2239 H         1 UNK         0.3459 
    133 H133       37.3776    2.5381   -8.7157 H         1 UNK         0.3459 
    134 H134       33.6922    2.5670   -6.5467 H         1 UNK         0.0612 
    135 H135       34.6006    2.1268   -5.1236 H         1 UNK         0.0612 
    136 H136       33.3583    1.2905   -3.1526 H         1 UNK         0.0624 
    137 H137       34.0711   -0.2092   -3.7110 H         1 UNK         0.0624 
@<TRIPOS>BOND
     1    1    2 1    
     2    1   72 1    
     3    1   73 1    
     4    1   74 1    
     5    2    3 2    
     6    2    4 am   BACKBONE|DICT|INTERRES
     7    4    5 1    
     8    4   75 1    
     9    5    6 1    
    10    5   35 1    
    11    5   76 1    
    12    6    7 1    
    13    6   77 1    
    14    6   78 1    
    15    7    8 1    
    16    8    9 1    
    17    8   79 1    
    18    8   80 1    
    19    9   10 ar   
    20    9   14 ar   
    21   10   11 ar   
    22   10   81 1    
    23   11   12 ar   
    24   11   71 1    
    25   12   13 ar   
    26   12   82 1    
    27   13   14 ar   
    28   13   15 1    
    29   14   83 1    
    30   15   16 1    
    31   15   84 1    
    32   15   85 1    
    33   16   17 1    
    34   17   18 1    
    35   17   86 1    
    36   17   87 1    
    37   18   19 1    
    38   18   37 1    
    39   18   88 1    
    40   19   20 am   BACKBONE|DICT|INTERRES
    41   19   89 1    
    42   20   21 2    
    43   20   22 1    
    44   22   23 1    
    45   22   24 1    
    46   22   90 1    
    47   23   91 1    
    48   23   92 1    
    49   23   93 1    
    50   24   25 am   BACKBONE|DICT|INTERRES
    51   24   94 1    
    52   25   26 2    
    53   25   27 1    
    54   27   28 1    
    55   27   29 1    
    56   27   95 1    
    57   28   96 1    
    58   28   97 1    
    59   28   98 1    
    60   29   30 am   BACKBONE|DICT|INTERRES
    61   29   99 1    
    62   30   31 2    
    63   30   32 1    
    64   32   33 1    
    65   32   34 1    
    66   32  100 1    
    67   33  101 1    
    68   33  102 1    
    69   33  103 1    
    70   34   35 am   BACKBONE|DICT|INTERRES
    71   34  104 1    
    72   35   36 2    
    73   37   38 2    
    74   37   39 am   BACKBONE|DICT|INTERRES
    75   39   40 1    
    76   39  105 1    
    77   40   41 1    
    78   40   42 1    
    79   40  106 1    
    80   41  107 1    
    81   41  108 1    
    82   41  109 1    
    83   42   43 2    
    84   42   44 am   BACKBONE|DICT|INTERRES
    85   44   45 1    
    86   44  110 1    
    87   45   46 1    
    88   45   47 1    
    89   45  111 1    
    90   46  112 1    
    91   46  113 1    
    92   46  114 1    
    93   47   48 2    
    94   47   49 am   BACKBONE|DICT|INTERRES
    95   49   50 1    
    96   49  115 1    
    97   50   51 1    
    98   50   52 1    
    99   50  116 1    
   100   51  117 1    
   101   51  118 1    
   102   51  119 1    
   103   52   53 2    
   104   52   54 am   BACKBONE|DICT|INTERRES
   105   54   55 1    
   106   54  120 1    
   107   55   56 1    
   108   55   57 1    
   109   55  121 1    
   110   56  122 1    
   111   56  123 1    
   112   56  124 1    
   113   57   58 2    
   114   57   59 am   BACKBONE|DICT|INTERRES
   115   59   60 1    
   116   59  125 1    
   117   60   61 1    
   118   60   62 1    
   119   60  126 1    
   120   61  127 1    
   121   61  128 1    
   122   61  129 1    
   123   62   63 2    
   124   62   64 am   BACKBONE|DICT|INTERRES
   125   64   65 1    
   126   64  130 1    
   127   65   66 1    
   128   65   69 1    
   129   65  131 1    
   130   66   67 am   BACKBONE|DICT|INTERRES
   131   66   68 2    
   132   67  132 1    
   133   67  133 1    
   134   69   70 1    
   135   69  134 1    
   136   69  135 1    
   137   70   71 1    
   138   71  136 1    
   139   71  137 1    
@<TRIPOS>SUBSTRUCTURE
     1 UNK         1 GROUP             0       ****    0 ROOT    
