@<TRIPOS>MOLECULE
3R137
137   139    1
SMALL
USER_CHARGES


@<TRIPOS>ATOM
      1 CA         24.4037   -6.1503   -2.9431 C.3       0 UNK        -0.2020 
      2 C          25.0014   -5.0613   -2.0648 C.2       0 UNK         0.4855 
      3 O          24.2789   -4.1657   -1.6249 O.2       0 UNK        -0.5197 
      4 N          26.3153   -5.1342   -1.8072 N.am      1 UNK        -0.4892 
      5 CA         27.0887   -4.1812   -1.0020 C.3       1 UNK         0.0835 
      6 C6         28.5566   -4.6522   -0.8524 C.3       12 UNK        -0.0855 
      7 S7         29.5268   -3.6573    0.3388 S.3       12 UNK        -0.2931 
      8 C8         31.2168   -3.7395   -0.3519 C.3       12 UNK         0.0378 
      9 C9         31.2856   -3.1944   -1.7717 C.ar      12 UNK        -0.0802 
     10 C10        31.4691   -4.0639   -2.8496 C.ar      12 UNK        -0.0944 
     11 C11        31.4370   -3.5866   -4.1621 C.ar      12 UNK        -0.0787 
     12 C12        31.2331   -2.2211   -4.3914 C.ar      12 UNK        -0.0862 
     13 C13        31.0744   -1.3337   -3.3211 C.ar      12 UNK        -0.0733 
     14 C14        31.1210   -1.8284   -2.0120 C.ar      12 UNK        -0.0832 
     15 C15        30.8231    0.1490   -3.5828 C.3       12 UNK         0.0240 
     16 S16        29.3840    0.7506   -2.6380 S.3       12 UNK        -0.2522 
     17 C17        28.7029    2.1135   -3.6428 C.3       12 UNK        -0.0967 
     18 CA         28.2826    1.7424   -5.0927 C.3       5 UNK         0.0660 
     19 N          27.7764    0.3761   -5.2343 N.am      5 UNK        -0.4015 
     20 C          27.6309   -0.2660   -6.4009 C.2       4 UNK         0.4946 
     21 O          27.9493    0.2111   -7.4916 O.2       4 UNK        -0.5353 
     22 CA         26.9909   -1.6621   -6.3405 C.3       4 UNK         0.0277 
     23 CB         28.0580   -2.7421   -6.1056 C.3       4 UNK        -0.1981 
     24 N          25.9576   -1.7515   -5.3038 N.am      4 UNK        -0.4209 
     25 C          24.7632   -1.1445   -5.3928 C.2       3 UNK         0.4942 
     26 O          24.4030   -0.4963   -6.3741 O.2       3 UNK        -0.5208 
     27 CA         23.8249   -1.2276   -4.1755 C.3       3 UNK         0.0250 
     28 CB         22.9230   -2.4665   -4.2762 C.3       3 UNK        -0.1990 
     29 N          24.5322   -1.2312   -2.8929 N.am      3 UNK        -0.4232 
     30 C          25.3209   -0.2349   -2.4606 C.2       2 UNK         0.4993 
     31 O          25.4896    0.8160   -3.0806 O.2       2 UNK        -0.5286 
     32 CA         26.0861   -0.4503   -1.1427 C.3       2 UNK         0.0209 
     33 CB         25.3352    0.2152    0.0211 C.3       2 UNK        -0.1931 
     34 N          26.3593   -1.8511   -0.8027 N.am      2 UNK        -0.4546 
     35 C          26.9740   -2.7541   -1.5824 C.2       1 UNK         0.5154 
     36 O          27.3726   -2.5236   -2.7270 O.2       1 UNK        -0.5181 
     37 C          27.2570    2.7520   -5.6424 C.2       5 UNK         0.5014 
     38 O          27.6341    3.6507   -6.3935 O.2       5 UNK        -0.5248 
     39 N          25.9744    2.5572   -5.2951 N.am      6 UNK        -0.4434 
     40 CA         24.8351    3.3379   -5.7888 C.3       6 UNK         0.0363 
     41 CB         23.5606    2.9138   -5.0428 C.3       6 UNK        -0.1936 
     42 C          24.6351    3.2231   -7.3108 C.2       6 UNK         0.5081 
     43 O          24.2972    4.2175   -7.9529 O.2       6 UNK        -0.5248 
     44 N          24.8873    2.0296   -7.8668 N.am      7 UNK        -0.4718 
     45 CA         24.9123    1.7619   -9.3088 C.3       7 UNK         0.0273 
     46 CB         24.8200    0.2439   -9.5367 C.3       7 UNK        -0.1935 
     47 C          26.1497    2.3359  -10.0288 C.2       7 UNK         0.5018 
     48 O          26.1764    2.3179  -11.2602 O.2       7 UNK        -0.5186 
     49 N          27.1415    2.8200   -9.2648 N.am      8 UNK        -0.4240 
     50 CA         28.4254    3.3750   -9.7023 C.3       8 UNK         0.0235 
     51 CB         28.2219    4.6902  -10.4853 C.3       8 UNK        -0.2000 
     52 C          29.2954    2.3475  -10.4489 C.2       8 UNK         0.4941 
     53 O          29.9073    2.6824  -11.4663 O.2       8 UNK        -0.5273 
     54 N          29.3397    1.1111   -9.9317 N.am      9 UNK        -0.4262 
     55 CA         30.2028    0.0428  -10.4366 C.3       9 UNK         0.0264 
     56 CB         29.7809   -1.2889   -9.7925 C.3       9 UNK        -0.1955 
     57 C          31.6830    0.3299  -10.1341 C.2       9 UNK         0.5031 
     58 O          31.9920    0.9246   -9.0975 O.2       9 UNK        -0.5390 
     59 N          32.5771   -0.1699  -11.0006 N.am      10 UNK        -0.4204 
     60 CA         34.0406   -0.0788  -10.8618 C.3       10 UNK         0.0237 
     61 CB         34.7046   -0.6598  -12.1211 C.3       10 UNK        -0.1985 
     62 C          34.6019   -0.7560   -9.5940 C.2       10 UNK         0.4970 
     63 O          35.7100   -0.4279   -9.1689 O.2       10 UNK        -0.4914 
     64 N          33.8113   -1.6634   -9.0099 N.am      11 UNK        -0.4285 
     65 CA         33.9818   -2.2464   -7.6752 C.3       11 UNK         0.1007 
     66 C          33.9868   -1.1993   -6.5183 C.2       11 UNK         0.5703 
     67 N          33.3345   -0.0494   -6.6612 N.am      11 UNK        -0.7361 
     68 O          34.6161   -1.4218   -5.4875 O.2       11 UNK        -0.4986 
     69 C69        32.8984   -3.3371   -7.4735 C.3       12 UNK        -0.0947 
     70 S70        33.2161   -4.4913   -6.0994 S.3       12 UNK        -0.2240 
     71 C71        31.5722   -4.5656   -5.3201 C.3       12 UNK         0.0194 
     72 H72        24.0621   -5.7296   -3.8878 H         1 UNK         0.0906 
     73 H73        25.1239   -6.9379   -3.1635 H         1 UNK         0.0906 
     74 H74        23.5486   -6.6058   -2.4445 H         1 UNK         0.0906 
     75 H75        26.8514   -5.8817   -2.2243 H         1 UNK         0.3140 
     76 H76        26.6407   -4.1843   -0.0059 H         1 UNK         0.1085 
     77 H77        29.0371   -4.6580   -1.8303 H         1 UNK         0.0836 
     78 H78        28.5806   -5.6858   -0.5035 H         1 UNK         0.0836 
     79 H79        31.5656   -4.7728   -0.3153 H         1 UNK         0.0731 
     80 H80        31.8900   -3.1668    0.2874 H         1 UNK         0.0731 
     81 H81        31.6002   -5.1218   -2.6673 H         1 UNK         0.1312 
     82 H82        31.1863   -1.8495   -5.4046 H         1 UNK         0.1406 
     83 H83        30.9781   -1.1563   -1.1769 H         1 UNK         0.1631 
     84 H84        30.6667    0.3203   -4.6478 H         1 UNK         0.0717 
     85 H85        31.7062    0.7230   -3.3001 H         1 UNK         0.0717 
     86 H86        27.8487    2.4934   -3.0776 H         1 UNK         0.0934 
     87 H87        29.4274    2.9296   -3.6623 H         1 UNK         0.0934 
     88 H88        29.1721    1.8175   -5.7221 H         1 UNK         0.0739 
     89 H89        27.4956   -0.0853   -4.3804 H         1 UNK         0.3093 
     90 H90        26.5238   -1.8529   -7.3089 H         1 UNK         0.0818 
     91 H91        27.6260   -3.7418   -6.1484 H         1 UNK         0.0819 
     92 H92        28.8392   -2.6933   -6.8650 H         1 UNK         0.0819 
     93 H93        28.5380   -2.6291   -5.1335 H         1 UNK         0.0819 
     94 H94        26.2174   -2.2135   -4.4378 H         1 UNK         0.3041 
     95 H95        23.1864   -0.3423   -4.1912 H         1 UNK         0.0784 
     96 H96        22.3311   -2.4433   -5.1923 H         1 UNK         0.0793 
     97 H97        23.5057   -3.3872   -4.2890 H         1 UNK         0.0793 
     98 H98        22.2256   -2.5218   -3.4401 H         1 UNK         0.0793 
     99 H99        24.4607   -2.0728   -2.3314 H         1 UNK         0.3024 
    100 H100       27.0494    0.0471   -1.2487 H         1 UNK         0.1171 
    101 H101       25.9158    0.1770    0.9431 H         1 UNK         0.0786 
    102 H102       25.1399    1.2675   -0.1915 H         1 UNK         0.0786 
    103 H103       24.3731   -0.2638    0.2073 H         1 UNK         0.0786 
    104 H104       26.0363   -2.1524    0.1054 H         1 UNK         0.2977 
    105 H105       25.7641    1.8264   -4.6164 H         1 UNK         0.3127 
    106 H106       25.0329    4.3871   -5.5597 H         1 UNK         0.0770 
    107 H107       23.3072    1.8721   -5.2406 H         1 UNK         0.0814 
    108 H108       22.7083    3.5209   -5.3509 H         1 UNK         0.0814 
    109 H109       23.6721    3.0326   -3.9648 H         1 UNK         0.0814 
    110 H110       25.0715    1.2381   -7.2582 H         1 UNK         0.2983 
    111 H111       24.0337    2.2294   -9.7585 H         1 UNK         0.0947 
    112 H112       25.6751   -0.2786   -9.1067 H         1 UNK         0.0806 
    113 H113       24.7942    0.0063  -10.6009 H         1 UNK         0.0806 
    114 H114       23.9151   -0.1704   -9.0919 H         1 UNK         0.0806 
    115 H115       27.0172    2.7844   -8.2599 H         1 UNK         0.3000 
    116 H116       28.9736    3.6204   -8.7916 H         1 UNK         0.0850 
    117 H117       27.6211    5.3999   -9.9167 H         1 UNK         0.0810 
    118 H118       27.7271    4.5213  -11.4422 H         1 UNK         0.0810 
    119 H119       29.1781    5.1710  -10.6952 H         1 UNK         0.0810 
    120 H120       28.8234    0.9102   -9.0778 H         1 UNK         0.3040 
    121 H121       30.0639   -0.0267  -11.5176 H         1 UNK         0.0766 
    122 H122       30.3446   -2.1251  -10.2075 H         1 UNK         0.0812 
    123 H123       28.7239   -1.4950   -9.9627 H         1 UNK         0.0812 
    124 H124       29.9486   -1.2836   -8.7145 H         1 UNK         0.0812 
    125 H125       32.2356   -0.6516  -11.8207 H         1 UNK         0.3205 
    126 H126       34.2968    0.9807  -10.7961 H         1 UNK         0.0754 
    127 H127       35.7911   -0.5787  -12.0631 H         1 UNK         0.0769 
    128 H128       34.3911   -0.1259  -13.0185 H         1 UNK         0.0769 
    129 H129       34.4637   -1.7152  -12.2548 H         1 UNK         0.0769 
    130 H130       32.9327   -1.8634   -9.4603 H         1 UNK         0.2981 
    131 H131       34.9600   -2.7306   -7.6698 H         1 UNK         0.0541 
    132 H132       33.3715    0.6241   -5.9144 H         1 UNK         0.3459 
    133 H133       32.8533    0.1855   -7.5245 H         1 UNK         0.3459 
    134 H134       31.9171   -2.8732   -7.3659 H         1 UNK         0.0612 
    135 H135       32.8293   -3.9567   -8.3694 H         1 UNK         0.0612 
    136 H136       30.7875   -4.3865   -6.0561 H         1 UNK         0.0624 
    137 H137       31.4141   -5.5859   -4.9674 H         1 UNK         0.0624 
@<TRIPOS>BOND
     1    1    2 1    
     2    1   72 1    
     3    1   73 1    
     4    1   74 1    
     5    2    3 2    
     6    2    4 am   BACKBONE|DICT|INTERRES
     7    4    5 1    
     8    4   75 1    
     9    5    6 1    
    10    5   35 1    
    11    5   76 1    
    12    6    7 1    
    13    6   77 1    
    14    6   78 1    
    15    7    8 1    
    16    8    9 1    
    17    8   79 1    
    18    8   80 1    
    19    9   10 ar   
    20    9   14 ar   
    21   10   11 ar   
    22   10   81 1    
    23   11   12 ar   
    24   11   71 1    
    25   12   13 ar   
    26   12   82 1    
    27   13   14 ar   
    28   13   15 1    
    29   14   83 1    
    30   15   16 1    
    31   15   84 1    
    32   15   85 1    
    33   16   17 1    
    34   17   18 1    
    35   17   86 1    
    36   17   87 1    
    37   18   19 1    
    38   18   37 1    
    39   18   88 1    
    40   19   20 am   BACKBONE|DICT|INTERRES
    41   19   89 1    
    42   20   21 2    
    43   20   22 1    
    44   22   23 1    
    45   22   24 1    
    46   22   90 1    
    47   23   91 1    
    48   23   92 1    
    49   23   93 1    
    50   24   25 am   BACKBONE|DICT|INTERRES
    51   24   94 1    
    52   25   26 2    
    53   25   27 1    
    54   27   28 1    
    55   27   29 1    
    56   27   95 1    
    57   28   96 1    
    58   28   97 1    
    59   28   98 1    
    60   29   30 am   BACKBONE|DICT|INTERRES
    61   29   99 1    
    62   30   31 2    
    63   30   32 1    
    64   32   33 1    
    65   32   34 1    
    66   32  100 1    
    67   33  101 1    
    68   33  102 1    
    69   33  103 1    
    70   34   35 am   BACKBONE|DICT|INTERRES
    71   34  104 1    
    72   35   36 2    
    73   37   38 2    
    74   37   39 am   BACKBONE|DICT|INTERRES
    75   39   40 1    
    76   39  105 1    
    77   40   41 1    
    78   40   42 1    
    79   40  106 1    
    80   41  107 1    
    81   41  108 1    
    82   41  109 1    
    83   42   43 2    
    84   42   44 am   BACKBONE|DICT|INTERRES
    85   44   45 1    
    86   44  110 1    
    87   45   46 1    
    88   45   47 1    
    89   45  111 1    
    90   46  112 1    
    91   46  113 1    
    92   46  114 1    
    93   47   48 2    
    94   47   49 am   BACKBONE|DICT|INTERRES
    95   49   50 1    
    96   49  115 1    
    97   50   51 1    
    98   50   52 1    
    99   50  116 1    
   100   51  117 1    
   101   51  118 1    
   102   51  119 1    
   103   52   53 2    
   104   52   54 am   BACKBONE|DICT|INTERRES
   105   54   55 1    
   106   54  120 1    
   107   55   56 1    
   108   55   57 1    
   109   55  121 1    
   110   56  122 1    
   111   56  123 1    
   112   56  124 1    
   113   57   58 2    
   114   57   59 am   BACKBONE|DICT|INTERRES
   115   59   60 1    
   116   59  125 1    
   117   60   61 1    
   118   60   62 1    
   119   60  126 1    
   120   61  127 1    
   121   61  128 1    
   122   61  129 1    
   123   62   63 2    
   124   62   64 am   BACKBONE|DICT|INTERRES
   125   64   65 1    
   126   64  130 1    
   127   65   66 1    
   128   65   69 1    
   129   65  131 1    
   130   66   67 am   BACKBONE|DICT|INTERRES
   131   66   68 2    
   132   67  132 1    
   133   67  133 1    
   134   69   70 1    
   135   69  134 1    
   136   69  135 1    
   137   70   71 1    
   138   71  136 1    
   139   71  137 1    
@<TRIPOS>SUBSTRUCTURE
     1 UNK         1 GROUP             0       ****    0 ROOT    
