@<TRIPOS>MOLECULE
3R137
137   139    1
SMALL
USER_CHARGES


@<TRIPOS>ATOM
      1 CA         30.4345   -1.2548    2.8177 C.3       0 UNK        -0.2020 
      2 C          30.2223   -1.3795    1.3162 C.2       0 UNK         0.4855 
      3 O          30.6880   -0.5267    0.5612 O.2       0 UNK        -0.5197 
      4 N          29.5312   -2.4400    0.8813 N.am      1 UNK        -0.4892 
      5 CA         29.1854   -2.7159   -0.5176 C.3       1 UNK         0.0835 
      6 C6         28.6666   -4.1651   -0.6975 C.3       12 UNK        -0.0855 
      7 S7         29.9241   -5.3967   -0.2065 S.3       12 UNK        -0.2931 
      8 C8         30.0444   -6.4602   -1.6837 C.3       12 UNK         0.0378 
      9 C9         30.4091   -5.7055   -2.9583 C.ar      12 UNK        -0.0802 
     10 C10        31.4931   -4.8205   -2.9888 C.ar      12 UNK        -0.0944 
     11 C11        31.8296   -4.1336   -4.1601 C.ar      12 UNK        -0.0787 
     12 C12        31.0878   -4.3818   -5.3221 C.ar      12 UNK        -0.0862 
     13 C13        29.9822   -5.2335   -5.2986 C.ar      12 UNK        -0.0733 
     14 C14        29.6527   -5.9009   -4.1174 C.ar      12 UNK        -0.0832 
     15 C15        29.1224   -5.3993   -6.5425 C.3       12 UNK         0.0240 
     16 S16        27.6154   -4.3797   -6.4421 S.3       12 UNK        -0.2522 
     17 C17        28.2979   -2.6854   -6.3600 C.3       12 UNK        -0.0967 
     18 CA         27.4937   -1.6804   -7.2139 C.3       5 UNK         0.0660 
     19 N          26.0739   -1.6486   -6.8588 N.am      5 UNK        -0.4015 
     20 C          25.1046   -1.2437   -7.6906 C.2       4 UNK         0.4946 
     21 O          25.3160   -0.8512   -8.8367 O.2       4 UNK        -0.5353 
     22 CA         23.6647   -1.2208   -7.1477 C.3       4 UNK         0.0277 
     23 CB         22.9667   -2.5616   -7.4234 C.3       4 UNK        -0.1981 
     24 N          23.5825   -0.9089   -5.7181 N.am      4 UNK        -0.4209 
     25 C          24.0452    0.2168   -5.1580 C.2       3 UNK         0.4942 
     26 O          24.5587    1.1315   -5.8058 O.2       3 UNK        -0.5208 
     27 CA         23.9908    0.3276   -3.6218 C.3       3 UNK         0.0250 
     28 CB         23.2808   -0.8535   -2.9201 C.3       3 UNK        -0.1990 
     29 N          25.3323    0.5255   -3.0579 N.am      3 UNK        -0.4232 
     30 C          26.4029   -0.2693   -3.2165 C.2       2 UNK         0.4993 
     31 O          26.3894   -1.3116   -3.8754 O.2       2 UNK        -0.5286 
     32 CA         27.7328    0.2066   -2.5971 C.3       2 UNK         0.0209 
     33 CB         27.5905    1.3746   -1.5931 C.3       2 UNK        -0.1931 
     34 N          28.5188   -0.8798   -2.0050 N.am      2 UNK        -0.4546 
     35 C          28.1426   -1.6919   -1.0073 C.2       1 UNK         0.5154 
     36 O          27.0410   -1.6473   -0.4524 O.2       1 UNK        -0.5181 
     37 C          28.1313   -0.2757   -7.1767 C.2       5 UNK         0.5014 
     38 O          29.1355   -0.0638   -7.8590 O.2       5 UNK        -0.5248 
     39 N          27.5437    0.6773   -6.4333 N.am      6 UNK        -0.4434 
     40 CA         27.9158    2.0931   -6.5148 C.3       6 UNK         0.0363 
     41 CB         27.4218    2.8877   -5.2954 C.3       6 UNK        -0.1936 
     42 C          27.4086    2.7135   -7.8219 C.2       6 UNK         0.5081 
     43 O          28.1722    3.4014   -8.4970 O.2       6 UNK        -0.5248 
     44 N          26.1529    2.4153   -8.1818 N.am      7 UNK        -0.4718 
     45 CA         25.5414    2.8397   -9.4430 C.3       7 UNK         0.0273 
     46 CB         24.0476    2.4766   -9.4404 C.3       7 UNK        -0.1935 
     47 C          26.2498    2.2584  -10.6808 C.2       7 UNK         0.5018 
     48 O          26.4824    2.9931  -11.6416 O.2       7 UNK        -0.5186 
     49 N          26.5794    0.9603  -10.6344 N.am      8 UNK        -0.4240 
     50 CA         27.2197    0.2386  -11.7328 C.3       8 UNK         0.0235 
     51 CB         26.9636   -1.2700  -11.5805 C.3       8 UNK        -0.2000 
     52 C          28.7266    0.5091  -11.8653 C.2       8 UNK         0.4941 
     53 O          29.1919    0.6961  -12.9907 O.2       8 UNK        -0.5273 
     54 N          29.4700    0.4667  -10.7486 N.am      9 UNK        -0.4262 
     55 CA         30.9338    0.3482  -10.7631 C.3       9 UNK         0.0264 
     56 CB         31.3009   -1.1228  -10.4822 C.3       9 UNK        -0.1955 
     57 C          31.6620    1.2910   -9.7910 C.2       9 UNK         0.5031 
     58 O          32.8815    1.1660   -9.6657 O.2       9 UNK        -0.5390 
     59 N          30.9409    2.1983   -9.1122 N.am      10 UNK        -0.4204 
     60 CA         31.4495    3.1145   -8.0766 C.3       10 UNK         0.0237 
     61 CB         32.4281    4.1474   -8.6774 C.3       10 UNK        -0.1985 
     62 C          32.0254    2.3934   -6.8375 C.2       10 UNK         0.4970 
     63 O          32.8770    2.9538   -6.1464 O.2       10 UNK        -0.4914 
     64 N          31.5340    1.1784   -6.5606 N.am      11 UNK        -0.4285 
     65 CA         31.9487    0.3083   -5.4483 C.3       11 UNK         0.1007 
     66 C          31.2931    0.6605   -4.0763 C.2       11 UNK         0.5703 
     67 N          30.8394    1.8881   -3.8549 N.am      11 UNK        -0.7361 
     68 O          31.1728   -0.1913   -3.1987 O.2       11 UNK        -0.4986 
     69 C69        31.7826   -1.1890   -5.8409 C.3       12 UNK        -0.0947 
     70 S70        33.3121   -2.1644   -5.6246 S.3       12 UNK        -0.2240 
     71 C71        32.9783   -3.1213   -4.1010 C.3       12 UNK         0.0194 
     72 H72        29.9821   -2.0820    3.3646 H         1 UNK         0.0906 
     73 H73        31.4999   -1.2405    3.0460 H         1 UNK         0.0906 
     74 H74        29.9953   -0.3267    3.1824 H         1 UNK         0.0906 
     75 H75        29.1720   -3.1065    1.5497 H         1 UNK         0.3140 
     76 H76        30.0920   -2.6031   -1.1178 H         1 UNK         0.1085 
     77 H77        27.7703   -4.3334   -0.0971 H         1 UNK         0.0836 
     78 H78        28.3684   -4.3347   -1.7338 H         1 UNK         0.0836 
     79 H79        30.8007   -7.2251   -1.5033 H         1 UNK         0.0731 
     80 H80        29.0970   -6.9883   -1.8036 H         1 UNK         0.0731 
     81 H81        32.0684   -4.6530   -2.0882 H         1 UNK         0.1312 
     82 H82        31.3360   -3.8870   -6.2488 H         1 UNK         0.1406 
     83 H83        28.7980   -6.5640   -4.1028 H         1 UNK         0.1631 
     84 H84        28.8367   -6.4461   -6.6553 H         1 UNK         0.0717 
     85 H85        29.6811   -5.1357   -7.4421 H         1 UNK         0.0717 
     86 H86        29.3268   -2.7078   -6.7185 H         1 UNK         0.0934 
     87 H87        28.3410   -2.3775   -5.3136 H         1 UNK         0.0934 
     88 H88        27.5667   -2.0192   -8.2495 H         1 UNK         0.0739 
     89 H89        25.8473   -1.9113   -5.9062 H         1 UNK         0.3093 
     90 H90        23.1270   -0.4373   -7.6858 H         1 UNK         0.0818 
     91 H91        21.9177   -2.5325   -7.1282 H         1 UNK         0.0819 
     92 H92        22.9951   -2.8033   -8.4870 H         1 UNK         0.0819 
     93 H93        23.4450   -3.3843   -6.8900 H         1 UNK         0.0819 
     94 H94        23.1944   -1.6199   -5.1152 H         1 UNK         0.3041 
     95 H95        23.4227    1.2334   -3.4050 H         1 UNK         0.0784 
     96 H96        22.2537   -0.9655   -3.2701 H         1 UNK         0.0793 
     97 H97        23.7969   -1.8014   -3.0781 H         1 UNK         0.0793 
     98 H98        23.2301   -0.6892   -1.8436 H         1 UNK         0.0793 
     99 H99        25.4550    1.3751   -2.5253 H         1 UNK         0.3024 
    100 H100       28.3275    0.5585   -3.4387 H         1 UNK         0.1171 
    101 H101       28.5616    1.6585   -1.1868 H         1 UNK         0.0786 
    102 H102       26.9499    1.1111   -0.7503 H         1 UNK         0.0786 
    103 H103       27.1746    2.2664   -2.0630 H         1 UNK         0.0786 
    104 H104       29.4632   -0.9645   -2.3690 H         1 UNK         0.2977 
    105 H105       26.6791    0.4587   -5.9546 H         1 UNK         0.3127 
    106 H106       29.0022    2.1662   -6.5191 H         1 UNK         0.0770 
    107 H107       26.3503    2.7854   -5.1331 H         1 UNK         0.0814 
    108 H108       27.6245    3.9522   -5.4223 H         1 UNK         0.0814 
    109 H109       27.9364    2.5828   -4.3877 H         1 UNK         0.0814 
    110 H110       25.5818    1.8645   -7.5501 H         1 UNK         0.2983 
    111 H111       25.6254    3.9273   -9.4997 H         1 UNK         0.0947 
    112 H112       23.5616    2.8225  -10.3537 H         1 UNK         0.0806 
    113 H113       23.5281    2.9399   -8.6013 H         1 UNK         0.0806 
    114 H114       23.8911    1.3997   -9.3767 H         1 UNK         0.0806 
    115 H115       26.2637    0.4041   -9.8422 H         1 UNK         0.3000 
    116 H116       26.7477    0.5572  -12.6652 H         1 UNK         0.0850 
    117 H117       27.4013   -1.8270  -12.4101 H         1 UNK         0.0810 
    118 H118       25.8961   -1.4912  -11.5696 H         1 UNK         0.0810 
    119 H119       27.3946   -1.6639  -10.6599 H         1 UNK         0.0810 
    120 H120       29.0255    0.3085   -9.8499 H         1 UNK         0.3040 
    121 H121       31.3240    0.6057  -11.7497 H         1 UNK         0.0766 
    122 H122       32.3792   -1.2804  -10.5292 H         1 UNK         0.0812 
    123 H123       30.9680   -1.4366   -9.4921 H         1 UNK         0.0812 
    124 H124       30.8484   -1.7913  -11.2147 H         1 UNK         0.0812 
    125 H125       29.9438    2.2539   -9.2832 H         1 UNK         0.3205 
    126 H126       30.5904    3.6754   -7.7108 H         1 UNK         0.0754 
    127 H127       32.6761    4.9213   -7.9499 H         1 UNK         0.0769 
    128 H128       31.9934    4.6477   -9.5428 H         1 UNK         0.0769 
    129 H129       33.3655    3.6871   -8.9909 H         1 UNK         0.0769 
    130 H130       30.8058    0.8020   -7.1588 H         1 UNK         0.2981 
    131 H131       33.0119    0.4965   -5.2904 H         1 UNK         0.0541 
    132 H132       30.9949    2.6160   -4.5331 H         1 UNK         0.3459 
    133 H133       30.4456    2.1087   -2.9552 H         1 UNK         0.3459 
    134 H134       31.5174   -1.2867   -6.8950 H         1 UNK         0.0612 
    135 H135       30.9569   -1.6550   -5.3034 H         1 UNK         0.0612 
    136 H136       33.8921   -3.6543   -3.8354 H         1 UNK         0.0624 
    137 H137       32.7873   -2.4163   -3.2909 H         1 UNK         0.0624 
@<TRIPOS>BOND
     1    1    2 1    
     2    1   72 1    
     3    1   73 1    
     4    1   74 1    
     5    2    3 2    
     6    2    4 am   BACKBONE|DICT|INTERRES
     7    4    5 1    
     8    4   75 1    
     9    5    6 1    
    10    5   35 1    
    11    5   76 1    
    12    6    7 1    
    13    6   77 1    
    14    6   78 1    
    15    7    8 1    
    16    8    9 1    
    17    8   79 1    
    18    8   80 1    
    19    9   10 ar   
    20    9   14 ar   
    21   10   11 ar   
    22   10   81 1    
    23   11   12 ar   
    24   11   71 1    
    25   12   13 ar   
    26   12   82 1    
    27   13   14 ar   
    28   13   15 1    
    29   14   83 1    
    30   15   16 1    
    31   15   84 1    
    32   15   85 1    
    33   16   17 1    
    34   17   18 1    
    35   17   86 1    
    36   17   87 1    
    37   18   19 1    
    38   18   37 1    
    39   18   88 1    
    40   19   20 am   BACKBONE|DICT|INTERRES
    41   19   89 1    
    42   20   21 2    
    43   20   22 1    
    44   22   23 1    
    45   22   24 1    
    46   22   90 1    
    47   23   91 1    
    48   23   92 1    
    49   23   93 1    
    50   24   25 am   BACKBONE|DICT|INTERRES
    51   24   94 1    
    52   25   26 2    
    53   25   27 1    
    54   27   28 1    
    55   27   29 1    
    56   27   95 1    
    57   28   96 1    
    58   28   97 1    
    59   28   98 1    
    60   29   30 am   BACKBONE|DICT|INTERRES
    61   29   99 1    
    62   30   31 2    
    63   30   32 1    
    64   32   33 1    
    65   32   34 1    
    66   32  100 1    
    67   33  101 1    
    68   33  102 1    
    69   33  103 1    
    70   34   35 am   BACKBONE|DICT|INTERRES
    71   34  104 1    
    72   35   36 2    
    73   37   38 2    
    74   37   39 am   BACKBONE|DICT|INTERRES
    75   39   40 1    
    76   39  105 1    
    77   40   41 1    
    78   40   42 1    
    79   40  106 1    
    80   41  107 1    
    81   41  108 1    
    82   41  109 1    
    83   42   43 2    
    84   42   44 am   BACKBONE|DICT|INTERRES
    85   44   45 1    
    86   44  110 1    
    87   45   46 1    
    88   45   47 1    
    89   45  111 1    
    90   46  112 1    
    91   46  113 1    
    92   46  114 1    
    93   47   48 2    
    94   47   49 am   BACKBONE|DICT|INTERRES
    95   49   50 1    
    96   49  115 1    
    97   50   51 1    
    98   50   52 1    
    99   50  116 1    
   100   51  117 1    
   101   51  118 1    
   102   51  119 1    
   103   52   53 2    
   104   52   54 am   BACKBONE|DICT|INTERRES
   105   54   55 1    
   106   54  120 1    
   107   55   56 1    
   108   55   57 1    
   109   55  121 1    
   110   56  122 1    
   111   56  123 1    
   112   56  124 1    
   113   57   58 2    
   114   57   59 am   BACKBONE|DICT|INTERRES
   115   59   60 1    
   116   59  125 1    
   117   60   61 1    
   118   60   62 1    
   119   60  126 1    
   120   61  127 1    
   121   61  128 1    
   122   61  129 1    
   123   62   63 2    
   124   62   64 am   BACKBONE|DICT|INTERRES
   125   64   65 1    
   126   64  130 1    
   127   65   66 1    
   128   65   69 1    
   129   65  131 1    
   130   66   67 am   BACKBONE|DICT|INTERRES
   131   66   68 2    
   132   67  132 1    
   133   67  133 1    
   134   69   70 1    
   135   69  134 1    
   136   69  135 1    
   137   70   71 1    
   138   71  136 1    
   139   71  137 1    
@<TRIPOS>SUBSTRUCTURE
     1 UNK         1 GROUP             0       ****    0 ROOT    
