@<TRIPOS>MOLECULE
3R137
137   139    1
SMALL
USER_CHARGES


@<TRIPOS>ATOM
      1 CA         32.3202   -0.1693   -1.6409 C.3       0 UNK        -0.2020 
      2 C          31.0099   -0.3346   -2.3950 C.2       0 UNK         0.4855 
      3 O          30.7270    0.4536   -3.2968 O.2       0 UNK        -0.5197 
      4 N          30.2200   -1.3548   -2.0346 N.am      1 UNK        -0.4892 
      5 CA         28.9456   -1.7328   -2.6566 C.3       1 UNK         0.0835 
      6 C6         28.3268   -2.9959   -1.9923 C.3       12 UNK        -0.0855 
      7 S7         29.5078   -4.3632   -1.7207 S.3       12 UNK        -0.2931 
      8 C8         29.0253   -5.5680   -3.0024 C.3       12 UNK         0.0378 
      9 C9         29.4060   -5.1411   -4.4163 C.ar      12 UNK        -0.0802 
     10 C10        30.6635   -4.5900   -4.6877 C.ar      12 UNK        -0.0944 
     11 C11        31.0183   -4.2167   -5.9878 C.ar      12 UNK        -0.0787 
     12 C12        30.1087   -4.4297   -7.0287 C.ar      12 UNK        -0.0862 
     13 C13        28.8585   -5.0061   -6.7807 C.ar      12 UNK        -0.0733 
     14 C14        28.5127   -5.3540   -5.4706 C.ar      12 UNK        -0.0832 
     15 C15        27.9090   -5.2977   -7.9392 C.3       12 UNK         0.0240 
     16 S16        26.2335   -4.6263   -7.6898 S.3       12 UNK        -0.2522 
     17 C17        26.5757   -2.8384   -7.6981 C.3       12 UNK        -0.0967 
     18 CA         25.3534   -1.9746   -7.2865 C.3       5 UNK         0.0660 
     19 N          24.9142   -2.2489   -5.9202 N.am      5 UNK        -0.4015 
     20 C          23.8413   -2.9770   -5.5846 C.2       4 UNK         0.4946 
     21 O          23.0264   -3.4247   -6.3925 O.2       4 UNK        -0.5353 
     22 CA         23.6560   -3.2762   -4.0887 C.3       4 UNK         0.0277 
     23 CB         24.5564   -4.4501   -3.6649 C.3       4 UNK        -0.1981 
     24 N          23.9394   -2.1109   -3.2497 N.am      4 UNK        -0.4209 
     25 C          23.0838   -1.0975   -3.0522 C.2       3 UNK         0.4942 
     26 O          21.9441   -1.0550   -3.5164 O.2       3 UNK        -0.5208 
     27 CA         23.6012    0.0733   -2.2017 C.3       3 UNK         0.0250 
     28 CB         23.5395   -0.2649   -0.7032 C.3       3 UNK        -0.1990 
     29 N          24.9690    0.4457   -2.5663 N.am      3 UNK        -0.4232 
     30 C          25.3162    1.0492   -3.7086 C.2       2 UNK         0.4993 
     31 O          24.5013    1.4279   -4.5476 O.2       2 UNK        -0.5286 
     32 CA         26.8176    1.2543   -3.9749 C.3       2 UNK         0.0209 
     33 CB         27.3538    2.4681   -3.1881 C.3       2 UNK        -0.1931 
     34 N          27.6543    0.0587   -3.7642 N.am      2 UNK        -0.4546 
     35 C          27.9398   -0.5612   -2.6083 C.2       1 UNK         0.5154 
     36 O          27.4484   -0.2426   -1.5225 O.2       1 UNK        -0.5181 
     37 C          25.6906   -0.4811   -7.3706 C.2       5 UNK         0.5014 
     38 O          26.8392   -0.1076   -7.1273 O.2       5 UNK        -0.5248 
     39 N          24.6998    0.3534   -7.7124 N.am      6 UNK        -0.4434 
     40 CA         24.8653    1.8051   -7.8756 C.3       6 UNK         0.0363 
     41 CB         23.4909    2.4601   -8.0822 C.3       6 UNK        -0.1936 
     42 C          25.8258    2.1867   -9.0161 C.2       6 UNK         0.5081 
     43 O          26.5246    3.1945   -8.9151 O.2       6 UNK        -0.5248 
     44 N          25.8762    1.3479  -10.0599 N.am      7 UNK        -0.4718 
     45 CA         26.7969    1.4676  -11.1932 C.3       7 UNK         0.0273 
     46 CB         26.2912    0.5722  -12.3367 C.3       7 UNK        -0.1935 
     47 C          28.2601    1.1242  -10.8489 C.2       7 UNK         0.5018 
     48 O          29.1423    1.4284  -11.6524 O.2       7 UNK        -0.5186 
     49 N          28.4972    0.5002   -9.6866 N.am      8 UNK        -0.4240 
     50 CA         29.8160    0.1031   -9.1946 C.3       8 UNK         0.0235 
     51 CB         29.9374   -1.4316   -9.2369 C.3       8 UNK        -0.2000 
     52 C          30.0627    0.6695   -7.7878 C.2       8 UNK         0.4941 
     53 O          30.7402    0.0269   -6.9860 O.2       8 UNK        -0.5273 
     54 N          29.5226    1.8630   -7.5004 N.am      9 UNK        -0.4262 
     55 CA         29.7263    2.5773   -6.2393 C.3       9 UNK         0.0264 
     56 CB         28.8532    3.8421   -6.2182 C.3       9 UNK        -0.1955 
     57 C          31.2111    2.9194   -6.0260 C.2       9 UNK         0.5031 
     58 O          31.8187    3.5429   -6.8991 O.2       9 UNK        -0.5390 
     59 N          31.7598    2.4599   -4.8939 N.am      10 UNK        -0.4204 
     60 CA         33.1721    2.4740   -4.4918 C.3       10 UNK         0.0237 
     61 CB         33.7743    3.8953   -4.5177 C.3       10 UNK        -0.1985 
     62 C          34.0468    1.4475   -5.2412 C.2       10 UNK         0.4970 
     63 O          35.2503    1.4013   -4.9825 O.2       10 UNK        -0.4914 
     64 N          33.4447    0.6296   -6.1177 N.am      11 UNK        -0.4285 
     65 CA         34.0656   -0.4729   -6.8715 C.3       11 UNK         0.1007 
     66 C          35.2319   -0.0590   -7.8202 C.2       11 UNK         0.5703 
     67 N          35.3098    1.1941   -8.2532 N.am      11 UNK        -0.7361 
     68 O          36.0580   -0.8853   -8.2015 O.2       11 UNK        -0.4986 
     69 C69        34.3961   -1.6939   -5.9661 C.3       12 UNK        -0.0947 
     70 S70        32.9090   -2.3341   -5.1218 S.3       12 UNK        -0.2240 
     71 C71        32.3976   -3.6370   -6.2902 C.3       12 UNK         0.0194 
     72 H72        32.4264   -0.9022   -0.8413 H         1 UNK         0.0906 
     73 H73        33.1599   -0.2902   -2.3251 H         1 UNK         0.0906 
     74 H74        32.3772    0.8254   -1.2000 H         1 UNK         0.0906 
     75 H75        30.5145   -1.9675   -1.2874 H         1 UNK         0.3140 
     76 H76        29.1617   -1.9704   -3.7009 H         1 UNK         0.1085 
     77 H77        27.4858   -3.3573   -2.5850 H         1 UNK         0.0836 
     78 H78        27.9151   -2.7534   -1.0103 H         1 UNK         0.0836 
     79 H79        29.5197   -6.5163   -2.7881 H         1 UNK         0.0731 
     80 H80        27.9533   -5.7571   -2.9253 H         1 UNK         0.0731 
     81 H81        31.3717   -4.4507   -3.8826 H         1 UNK         0.1312 
     82 H82        30.3858   -4.1694   -8.0409 H         1 UNK         0.1406 
     83 H83        27.5497   -5.8081   -5.2788 H         1 UNK         0.1631 
     84 H84        27.8359   -6.3786   -8.0653 H         1 UNK         0.0717 
     85 H85        28.3057   -4.9056   -8.8772 H         1 UNK         0.0717 
     86 H86        26.9095   -2.5692   -8.7021 H         1 UNK         0.0934 
     87 H87        27.4185   -2.6479   -7.0304 H         1 UNK         0.0934 
     88 H88        24.5443   -2.1714   -7.9934 H         1 UNK         0.0739 
     89 H89        25.5020   -1.8764   -5.1913 H         1 UNK         0.3093 
     90 H90        22.6170   -3.5754   -3.9321 H         1 UNK         0.0818 
     91 H91        25.6127   -4.2364   -3.8287 H         1 UNK         0.0819 
     92 H92        24.4203   -4.6975   -2.6119 H         1 UNK         0.0819 
     93 H93        24.3180   -5.3461   -4.2399 H         1 UNK         0.0819 
     94 H94        24.8393   -2.0725   -2.7960 H         1 UNK         0.3041 
     95 H95        22.9520    0.9326   -2.3847 H         1 UNK         0.0784 
     96 H96        22.5266   -0.5420   -0.4074 H         1 UNK         0.0793 
     97 H97        24.1950   -1.0977   -0.4455 H         1 UNK         0.0793 
     98 H98        23.8313    0.5903   -0.0934 H         1 UNK         0.0793 
     99 H99        25.7222    0.1854   -1.9317 H         1 UNK         0.3024 
    100 H100       26.9115    1.4929   -5.0353 H         1 UNK         0.1171 
    101 H101       28.4178    2.6225   -3.3642 H         1 UNK         0.0786 
    102 H102       27.2125    2.3550   -2.1129 H         1 UNK         0.0786 
    103 H103       26.8376    3.3814   -3.4867 H         1 UNK         0.0786 
    104 H104       28.1155   -0.2758   -4.6005 H         1 UNK         0.2977 
    105 H105       23.7728   -0.0194   -7.8628 H         1 UNK         0.3127 
    106 H106       25.2950    2.1999   -6.9532 H         1 UNK         0.0770 
    107 H107       22.9928    2.0860   -8.9775 H         1 UNK         0.0814 
    108 H108       23.5871    3.5415   -8.1896 H         1 UNK         0.0814 
    109 H109       22.8362    2.2790   -7.2293 H         1 UNK         0.0814 
    110 H110       25.2579    0.5497  -10.0597 H         1 UNK         0.2983 
    111 H111       26.7828    2.5045  -11.5365 H         1 UNK         0.0947 
    112 H112       26.9294    0.6638  -13.2169 H         1 UNK         0.0806 
    113 H113       25.2822    0.8495  -12.6426 H         1 UNK         0.0806 
    114 H114       26.2802   -0.4806  -12.0515 H         1 UNK         0.0806 
    115 H115       27.7271    0.3360   -9.0478 H         1 UNK         0.3000 
    116 H116       30.6004    0.5213   -9.8287 H         1 UNK         0.0850 
    117 H117       30.9467   -1.7500   -8.9735 H         1 UNK         0.0810 
    118 H118       29.7229   -1.8230  -10.2312 H         1 UNK         0.0810 
    119 H119       29.2543   -1.9033   -8.5315 H         1 UNK         0.0810 
    120 H120       28.9824    2.3368   -8.2105 H         1 UNK         0.3040 
    121 H121       29.3974    1.9156   -5.4362 H         1 UNK         0.0766 
    122 H122       29.1148    4.5251   -7.0274 H         1 UNK         0.0812 
    123 H123       27.7955    3.5968   -6.3171 H         1 UNK         0.0812 
    124 H124       28.9750    4.3852   -5.2803 H         1 UNK         0.0812 
    125 H125       31.1823    1.8611   -4.2996 H         1 UNK         0.3205 
    126 H126       33.1721    2.1479   -3.4512 H         1 UNK         0.0754 
    127 H127       34.7515    3.9119   -4.0337 H         1 UNK         0.0769 
    128 H128       33.1398    4.6059   -3.9881 H         1 UNK         0.0769 
    129 H129       33.9157    4.2613   -5.5348 H         1 UNK         0.0769 
    130 H130       32.4397    0.6976   -6.2458 H         1 UNK         0.2981 
    131 H131       33.2905   -0.8035   -7.5632 H         1 UNK         0.0541 
    132 H132       36.0580    1.4570   -8.8748 H         1 UNK         0.3459 
    133 H133       34.6343    1.8793   -7.9536 H         1 UNK         0.3459 
    134 H134       34.8402   -2.5056   -6.5447 H         1 UNK         0.0612 
    135 H135       35.1343   -1.4207   -5.2107 H         1 UNK         0.0612 
    136 H136       32.4156   -3.2198   -7.2981 H         1 UNK         0.0624 
    137 H137       33.1323   -4.4427   -6.2699 H         1 UNK         0.0624 
@<TRIPOS>BOND
     1    1    2 1    
     2    1   72 1    
     3    1   73 1    
     4    1   74 1    
     5    2    3 2    
     6    2    4 am   BACKBONE|DICT|INTERRES
     7    4    5 1    
     8    4   75 1    
     9    5    6 1    
    10    5   35 1    
    11    5   76 1    
    12    6    7 1    
    13    6   77 1    
    14    6   78 1    
    15    7    8 1    
    16    8    9 1    
    17    8   79 1    
    18    8   80 1    
    19    9   10 ar   
    20    9   14 ar   
    21   10   11 ar   
    22   10   81 1    
    23   11   12 ar   
    24   11   71 1    
    25   12   13 ar   
    26   12   82 1    
    27   13   14 ar   
    28   13   15 1    
    29   14   83 1    
    30   15   16 1    
    31   15   84 1    
    32   15   85 1    
    33   16   17 1    
    34   17   18 1    
    35   17   86 1    
    36   17   87 1    
    37   18   19 1    
    38   18   37 1    
    39   18   88 1    
    40   19   20 am   BACKBONE|DICT|INTERRES
    41   19   89 1    
    42   20   21 2    
    43   20   22 1    
    44   22   23 1    
    45   22   24 1    
    46   22   90 1    
    47   23   91 1    
    48   23   92 1    
    49   23   93 1    
    50   24   25 am   BACKBONE|DICT|INTERRES
    51   24   94 1    
    52   25   26 2    
    53   25   27 1    
    54   27   28 1    
    55   27   29 1    
    56   27   95 1    
    57   28   96 1    
    58   28   97 1    
    59   28   98 1    
    60   29   30 am   BACKBONE|DICT|INTERRES
    61   29   99 1    
    62   30   31 2    
    63   30   32 1    
    64   32   33 1    
    65   32   34 1    
    66   32  100 1    
    67   33  101 1    
    68   33  102 1    
    69   33  103 1    
    70   34   35 am   BACKBONE|DICT|INTERRES
    71   34  104 1    
    72   35   36 2    
    73   37   38 2    
    74   37   39 am   BACKBONE|DICT|INTERRES
    75   39   40 1    
    76   39  105 1    
    77   40   41 1    
    78   40   42 1    
    79   40  106 1    
    80   41  107 1    
    81   41  108 1    
    82   41  109 1    
    83   42   43 2    
    84   42   44 am   BACKBONE|DICT|INTERRES
    85   44   45 1    
    86   44  110 1    
    87   45   46 1    
    88   45   47 1    
    89   45  111 1    
    90   46  112 1    
    91   46  113 1    
    92   46  114 1    
    93   47   48 2    
    94   47   49 am   BACKBONE|DICT|INTERRES
    95   49   50 1    
    96   49  115 1    
    97   50   51 1    
    98   50   52 1    
    99   50  116 1    
   100   51  117 1    
   101   51  118 1    
   102   51  119 1    
   103   52   53 2    
   104   52   54 am   BACKBONE|DICT|INTERRES
   105   54   55 1    
   106   54  120 1    
   107   55   56 1    
   108   55   57 1    
   109   55  121 1    
   110   56  122 1    
   111   56  123 1    
   112   56  124 1    
   113   57   58 2    
   114   57   59 am   BACKBONE|DICT|INTERRES
   115   59   60 1    
   116   59  125 1    
   117   60   61 1    
   118   60   62 1    
   119   60  126 1    
   120   61  127 1    
   121   61  128 1    
   122   61  129 1    
   123   62   63 2    
   124   62   64 am   BACKBONE|DICT|INTERRES
   125   64   65 1    
   126   64  130 1    
   127   65   66 1    
   128   65   69 1    
   129   65  131 1    
   130   66   67 am   BACKBONE|DICT|INTERRES
   131   66   68 2    
   132   67  132 1    
   133   67  133 1    
   134   69   70 1    
   135   69  134 1    
   136   69  135 1    
   137   70   71 1    
   138   71  136 1    
   139   71  137 1    
@<TRIPOS>SUBSTRUCTURE
     1 UNK         1 GROUP             0       ****    0 ROOT    
