@<TRIPOS>MOLECULE
3R137
137   139    1
SMALL
USER_CHARGES


@<TRIPOS>ATOM
      1 CA         26.2325   -3.3882    3.9094 C.3       0 UNK        -0.2020 
      2 C          27.3891   -3.5721    2.9381 C.2       0 UNK         0.4855 
      3 O          28.1601   -4.5224    3.0758 O.2       0 UNK        -0.5197 
      4 N          27.5192   -2.6692    1.9627 N.am      1 UNK        -0.4892 
      5 CA         28.5744   -2.6458    0.9508 C.3       1 UNK         0.0835 
      6 C6         28.3843   -3.7385   -0.1432 C.3       12 UNK        -0.0855 
      7 S7         26.9907   -3.4428   -1.2945 S.3       12 UNK        -0.2931 
      8 C8         27.1722   -4.8409   -2.4549 C.3       12 UNK         0.0378 
      9 C9         28.0764   -4.5895   -3.6660 C.ar      12 UNK        -0.0802 
     10 C10        29.1468   -3.6838   -3.6401 C.ar      12 UNK        -0.0944 
     11 C11        29.9889   -3.5359   -4.7456 C.ar      12 UNK        -0.0787 
     12 C12        29.7489   -4.2912   -5.8948 C.ar      12 UNK        -0.0862 
     13 C13        28.6650   -5.1710   -5.9554 C.ar      12 UNK        -0.0733 
     14 C14        27.8442   -5.3250   -4.8347 C.ar      12 UNK        -0.0832 
     15 C15        28.3966   -5.9700   -7.2247 C.3       12 UNK         0.0240 
     16 S16        27.0218   -5.2834   -8.2087 S.3       12 UNK        -0.2522 
     17 C17        27.6597   -3.6305   -8.6609 C.3       12 UNK        -0.0967 
     18 CA         26.6466   -2.4757   -8.4422 C.3       5 UNK         0.0660 
     19 N          25.8890   -2.5902   -7.1925 N.am      5 UNK        -0.4015 
     20 C          24.8125   -1.8606   -6.8661 C.2       4 UNK         0.4946 
     21 O          24.3154   -1.0039   -7.5990 O.2       4 UNK        -0.5353 
     22 CA         24.2059   -2.0965   -5.4705 C.3       4 UNK         0.0277 
     23 CB         24.3968   -3.5405   -4.9566 C.3       4 UNK        -0.1981 
     24 N          24.6949   -1.1303   -4.4774 N.am      4 UNK        -0.4209 
     25 C          25.9721   -0.8841   -4.1479 C.2       3 UNK         0.4942 
     26 O          26.9358   -1.4110   -4.7078 O.2       3 UNK        -0.5208 
     27 CA         26.2234    0.1288   -3.0192 C.3       3 UNK         0.0250 
     28 CB         25.1669    0.0701   -1.8967 C.3       3 UNK        -0.1990 
     29 N          27.5419   -0.1331   -2.4502 N.am      3 UNK        -0.4232 
     30 C          28.4145    0.7808   -2.0125 C.2       2 UNK         0.4993 
     31 O          28.2182    1.9963   -2.0713 O.2       2 UNK        -0.5286 
     32 CA         29.7181    0.2345   -1.3860 C.3       2 UNK         0.0209 
     33 CB         30.4516    1.2847   -0.5242 C.3       2 UNK        -0.1931 
     34 N          29.5271   -1.0122   -0.6239 N.am      2 UNK        -0.4546 
     35 C          28.6814   -1.2070    0.4019 C.2       1 UNK         0.5154 
     36 O          27.9841   -0.3158    0.8984 O.2       1 UNK        -0.5181 
     37 C          27.3732   -1.1213   -8.5730 C.2       5 UNK         0.5014 
     38 O          27.7109   -0.7396   -9.6950 O.2       5 UNK        -0.5248 
     39 N          27.6024   -0.4173   -7.4496 N.am      6 UNK        -0.4434 
     40 CA         28.2890    0.8775   -7.3534 C.3       6 UNK         0.0363 
     41 CB         28.2450    1.3820   -5.9048 C.3       6 UNK        -0.1936 
     42 C          27.7674    1.9755   -8.2941 C.2       6 UNK         0.5081 
     43 O          28.5517    2.8409   -8.6781 O.2       6 UNK        -0.5248 
     44 N          26.4905    1.8981   -8.6947 N.am      7 UNK        -0.4718 
     45 CA         25.8765    2.7601   -9.7103 C.3       7 UNK         0.0273 
     46 CB         24.3853    2.4078   -9.8301 C.3       7 UNK        -0.1935 
     47 C          26.5603    2.6883  -11.0919 C.2       7 UNK         0.5018 
     48 O          26.5061    3.6697  -11.8343 O.2       7 UNK        -0.5186 
     49 N          27.1963    1.5495  -11.4006 N.am      8 UNK        -0.4240 
     50 CA         28.0155    1.3397  -12.5942 C.3       8 UNK         0.0235 
     51 CB         27.4981    0.1052  -13.3514 C.3       8 UNK        -0.2000 
     52 C          29.4981    1.1604  -12.2303 C.2       8 UNK         0.4941 
     53 O          30.3571    1.6895  -12.9360 O.2       8 UNK        -0.5273 
     54 N          29.7794    0.4092  -11.1554 N.am      9 UNK        -0.4262 
     55 CA         31.1293    0.0180  -10.7405 C.3       9 UNK         0.0264 
     56 CB         31.0340   -1.2143   -9.8233 C.3       9 UNK        -0.1955 
     57 C          31.9400    1.1308  -10.0534 C.2       9 UNK         0.5031 
     58 O          33.1655    1.0183  -10.0090 O.2       9 UNK        -0.5390 
     59 N          31.2640    2.1525   -9.5020 N.am      10 UNK        -0.4204 
     60 CA         31.8243    3.2726   -8.7282 C.3       10 UNK         0.0237 
     61 CB         32.7262    4.1600   -9.6133 C.3       10 UNK        -0.1985 
     62 C          32.5130    2.8504   -7.4108 C.2       10 UNK         0.4970 
     63 O          33.3373    3.6027   -6.8891 O.2       10 UNK        -0.4914 
     64 N          32.1606    1.6683   -6.8883 N.am      11 UNK        -0.4285 
     65 CA         32.7195    1.0739   -5.6645 C.3       11 UNK         0.1007 
     66 C          32.1555    1.6373   -4.3266 C.2       11 UNK         0.5703 
     67 N          31.2196    2.5786   -4.3399 N.am      11 UNK        -0.7361 
     68 O          32.5880    1.2208   -3.2553 O.2       11 UNK        -0.4986 
     69 C69        32.6866   -0.4762   -5.7320 C.3       12 UNK        -0.0947 
     70 S70        31.0107   -1.1957   -5.8394 S.3       12 UNK        -0.2240 
     71 C71        31.1848   -2.5957   -4.6909 C.3       12 UNK         0.0194 
     72 H72        25.6325   -2.5111    3.6671 H         1 UNK         0.0906 
     73 H73        25.5809   -4.2612    3.8858 H         1 UNK         0.0906 
     74 H74        26.6097   -3.2712    4.9250 H         1 UNK         0.0906 
     75 H75        26.9097   -1.8604    1.9151 H         1 UNK         0.3140 
     76 H76        29.5196   -2.8396    1.4633 H         1 UNK         0.1085 
     77 H77        29.3073   -3.8606   -0.7088 H         1 UNK         0.0836 
     78 H78        28.2257   -4.7081    0.3311 H         1 UNK         0.0836 
     79 H79        27.5389   -5.7152   -1.9157 H         1 UNK         0.0731 
     80 H80        26.1708   -5.0999   -2.8013 H         1 UNK         0.0731 
     81 H81        29.3430   -3.0943   -2.7606 H         1 UNK         0.1312 
     82 H82        30.4056   -4.1815   -6.7472 H         1 UNK         0.1406 
     83 H83        27.0210   -6.0258   -4.8753 H         1 UNK         0.1631 
     84 H84        28.1582   -7.0011   -6.9598 H         1 UNK         0.0717 
     85 H85        29.2918   -6.0172   -7.8468 H         1 UNK         0.0717 
     86 H86        28.5809   -3.4349   -8.1142 H         1 UNK         0.0934 
     87 H87        27.9554   -3.6640   -9.7114 H         1 UNK         0.0934 
     88 H88        25.9168   -2.5200   -9.2534 H         1 UNK         0.0739 
     89 H89        26.2644   -3.2290   -6.5054 H         1 UNK         0.3093 
     90 H90        23.1329   -1.9254   -5.5714 H         1 UNK         0.0818 
     91 H91        23.8238   -3.7090   -4.0448 H         1 UNK         0.0819 
     92 H92        24.0551   -4.2711   -5.6912 H         1 UNK         0.0819 
     93 H93        25.4388   -3.7604   -4.7299 H         1 UNK         0.0819 
     94 H94        23.9764   -0.6143   -3.9894 H         1 UNK         0.3041 
     95 H95        26.2087    1.1237   -3.4673 H         1 UNK         0.0784 
     96 H96        24.1865    0.3929   -2.2476 H         1 UNK         0.0793 
     97 H97        25.0634   -0.9386   -1.4943 H         1 UNK         0.0793 
     98 H98        25.4371    0.7267   -1.0691 H         1 UNK         0.0793 
     99 H99        27.7997   -1.1110   -2.4287 H         1 UNK         0.3024 
    100 H100       30.3674   -0.0122   -2.2277 H         1 UNK         0.1171 
    101 H101       31.3832    0.8863   -0.1229 H         1 UNK         0.0786 
    102 H102       30.7091    2.1646   -1.1147 H         1 UNK         0.0786 
    103 H103       29.8395    1.6215    0.3130 H         1 UNK         0.0786 
    104 H104       30.0725   -1.8000   -0.9424 H         1 UNK         0.2977 
    105 H105       27.3254   -0.8366   -6.5647 H         1 UNK         0.3127 
    106 H106       29.3308    0.6997   -7.6189 H         1 UNK         0.0770 
    107 H107       27.2208    1.5551   -5.5764 H         1 UNK         0.0814 
    108 H108       28.7777    2.3274   -5.8017 H         1 UNK         0.0814 
    109 H109       28.7075    0.6742   -5.2171 H         1 UNK         0.0814 
    110 H110       25.9223    1.1437   -8.3331 H         1 UNK         0.2983 
    111 H111       25.9619    3.7917   -9.3619 H         1 UNK         0.0947 
    112 H112       23.8906    3.0443  -10.5652 H         1 UNK         0.0806 
    113 H113       23.8665    2.5475   -8.8815 H         1 UNK         0.0806 
    114 H114       24.2395    1.3729  -10.1428 H         1 UNK         0.0806 
    115 H115       27.1918    0.7964  -10.7185 H         1 UNK         0.3000 
    116 H116       27.9454    2.2006  -13.2626 H         1 UNK         0.0850 
    117 H117       28.0960   -0.0853  -14.2438 H         1 UNK         0.0810 
    118 H118       26.4671    0.2459  -13.6763 H         1 UNK         0.0810 
    119 H119       27.5339   -0.7939  -12.7344 H         1 UNK         0.0810 
    120 H120       29.0104   -0.0192  -10.6416 H         1 UNK         0.3040 
    121 H121       31.6839   -0.2740  -11.6350 H         1 UNK         0.0766 
    122 H122       30.4809   -1.0003   -8.9094 H         1 UNK         0.0812 
    123 H123       32.0252   -1.5613   -9.5275 H         1 UNK         0.0812 
    124 H124       30.5382   -2.0453  -10.3254 H         1 UNK         0.0812 
    125 H125       30.2520    2.1672   -9.5831 H         1 UNK         0.3205 
    126 H126       30.9728    3.8838   -8.4271 H         1 UNK         0.0754 
    127 H127       33.0067    5.0768   -9.0934 H         1 UNK         0.0769 
    128 H128       32.2147    4.4540  -10.5300 H         1 UNK         0.0769 
    129 H129       33.6491    3.6509   -9.8924 H         1 UNK         0.0769 
    130 H130       31.4761    1.1079   -7.3696 H         1 UNK         0.2981 
    131 H131       33.7764    1.3460   -5.6432 H         1 UNK         0.0541 
    132 H132       30.8877    2.9537   -5.2118 H         1 UNK         0.3459 
    133 H133       30.8669    2.9375   -3.4676 H         1 UNK         0.3459 
    134 H134       33.2125   -0.8966   -4.8730 H         1 UNK         0.0612 
    135 H135       33.2453   -0.8140   -6.6062 H         1 UNK         0.0612 
    136 H136       32.0853   -3.1577   -4.9433 H         1 UNK         0.0624 
    137 H137       31.3315   -2.2084   -3.6815 H         1 UNK         0.0624 
@<TRIPOS>BOND
     1    1    2 1    
     2    1   72 1    
     3    1   73 1    
     4    1   74 1    
     5    2    3 2    
     6    2    4 am   BACKBONE|DICT|INTERRES
     7    4    5 1    
     8    4   75 1    
     9    5    6 1    
    10    5   35 1    
    11    5   76 1    
    12    6    7 1    
    13    6   77 1    
    14    6   78 1    
    15    7    8 1    
    16    8    9 1    
    17    8   79 1    
    18    8   80 1    
    19    9   10 ar   
    20    9   14 ar   
    21   10   11 ar   
    22   10   81 1    
    23   11   12 ar   
    24   11   71 1    
    25   12   13 ar   
    26   12   82 1    
    27   13   14 ar   
    28   13   15 1    
    29   14   83 1    
    30   15   16 1    
    31   15   84 1    
    32   15   85 1    
    33   16   17 1    
    34   17   18 1    
    35   17   86 1    
    36   17   87 1    
    37   18   19 1    
    38   18   37 1    
    39   18   88 1    
    40   19   20 am   BACKBONE|DICT|INTERRES
    41   19   89 1    
    42   20   21 2    
    43   20   22 1    
    44   22   23 1    
    45   22   24 1    
    46   22   90 1    
    47   23   91 1    
    48   23   92 1    
    49   23   93 1    
    50   24   25 am   BACKBONE|DICT|INTERRES
    51   24   94 1    
    52   25   26 2    
    53   25   27 1    
    54   27   28 1    
    55   27   29 1    
    56   27   95 1    
    57   28   96 1    
    58   28   97 1    
    59   28   98 1    
    60   29   30 am   BACKBONE|DICT|INTERRES
    61   29   99 1    
    62   30   31 2    
    63   30   32 1    
    64   32   33 1    
    65   32   34 1    
    66   32  100 1    
    67   33  101 1    
    68   33  102 1    
    69   33  103 1    
    70   34   35 am   BACKBONE|DICT|INTERRES
    71   34  104 1    
    72   35   36 2    
    73   37   38 2    
    74   37   39 am   BACKBONE|DICT|INTERRES
    75   39   40 1    
    76   39  105 1    
    77   40   41 1    
    78   40   42 1    
    79   40  106 1    
    80   41  107 1    
    81   41  108 1    
    82   41  109 1    
    83   42   43 2    
    84   42   44 am   BACKBONE|DICT|INTERRES
    85   44   45 1    
    86   44  110 1    
    87   45   46 1    
    88   45   47 1    
    89   45  111 1    
    90   46  112 1    
    91   46  113 1    
    92   46  114 1    
    93   47   48 2    
    94   47   49 am   BACKBONE|DICT|INTERRES
    95   49   50 1    
    96   49  115 1    
    97   50   51 1    
    98   50   52 1    
    99   50  116 1    
   100   51  117 1    
   101   51  118 1    
   102   51  119 1    
   103   52   53 2    
   104   52   54 am   BACKBONE|DICT|INTERRES
   105   54   55 1    
   106   54  120 1    
   107   55   56 1    
   108   55   57 1    
   109   55  121 1    
   110   56  122 1    
   111   56  123 1    
   112   56  124 1    
   113   57   58 2    
   114   57   59 am   BACKBONE|DICT|INTERRES
   115   59   60 1    
   116   59  125 1    
   117   60   61 1    
   118   60   62 1    
   119   60  126 1    
   120   61  127 1    
   121   61  128 1    
   122   61  129 1    
   123   62   63 2    
   124   62   64 am   BACKBONE|DICT|INTERRES
   125   64   65 1    
   126   64  130 1    
   127   65   66 1    
   128   65   69 1    
   129   65  131 1    
   130   66   67 am   BACKBONE|DICT|INTERRES
   131   66   68 2    
   132   67  132 1    
   133   67  133 1    
   134   69   70 1    
   135   69  134 1    
   136   69  135 1    
   137   70   71 1    
   138   71  136 1    
   139   71  137 1    
@<TRIPOS>SUBSTRUCTURE
     1 UNK         1 GROUP             0       ****    0 ROOT    
