@<TRIPOS>MOLECULE
3R137
137   139    1
SMALL
USER_CHARGES


@<TRIPOS>ATOM
      1 CA         29.5693   -1.8367    2.7344 C.3       0 UNK        -0.2020 
      2 C          29.1756   -1.9065    1.2665 C.2       0 UNK         0.4855 
      3 O          28.8146   -0.8854    0.6804 O.2       0 UNK        -0.5197 
      4 N          29.2508   -3.1006    0.6665 N.am      1 UNK        -0.4892 
      5 CA         28.8759   -3.3623   -0.7277 C.3       1 UNK         0.0835 
      6 C6         29.4350   -4.7166   -1.2382 C.3       12 UNK        -0.0855 
      7 S7         31.2504   -4.8386   -1.0421 S.3       12 UNK        -0.2931 
      8 C8         31.8612   -4.7612   -2.7631 C.3       12 UNK         0.0378 
      9 C9         31.3818   -3.5373   -3.5385 C.ar      12 UNK        -0.0802 
     10 C10        31.3768   -2.2658   -2.9553 C.ar      12 UNK        -0.0944 
     11 C11        30.8751   -1.1636   -3.6520 C.ar      12 UNK        -0.0787 
     12 C12        30.4218   -1.3295   -4.9643 C.ar      12 UNK        -0.0862 
     13 C13        30.4774   -2.5827   -5.5807 C.ar      12 UNK        -0.0733 
     14 C14        30.9482   -3.6832   -4.8595 C.ar      12 UNK        -0.0832 
     15 C15        30.0537   -2.7433   -7.0334 C.3       12 UNK         0.0240 
     16 S16        28.5921   -3.8166   -7.2313 S.3       12 UNK        -0.2522 
     17 C17        27.3023   -2.9186   -6.3046 C.3       12 UNK        -0.0967 
     18 CA         26.5022   -1.9391   -7.1987 C.3       5 UNK         0.0660 
     19 N          25.1571   -1.6821   -6.6883 N.am      5 UNK        -0.4015 
     20 C          24.1417   -1.2184   -7.4326 C.2       4 UNK         0.4946 
     21 O          24.1952   -1.0720   -8.6536 O.2       4 UNK        -0.5353 
     22 CA         22.8502   -0.8298   -6.6906 C.3       4 UNK         0.0277 
     23 CB         21.8665   -2.0107   -6.6675 C.3       4 UNK        -0.1981 
     24 N          23.0892   -0.3684   -5.3206 N.am      4 UNK        -0.4209 
     25 C          23.7553    0.7504   -4.9989 C.2       3 UNK         0.4942 
     26 O          24.1909    1.5506   -5.8254 O.2       3 UNK        -0.5208 
     27 CA         24.0351    0.9777   -3.5039 C.3       3 UNK         0.0250 
     28 CB         22.8598    1.7116   -2.8390 C.3       3 UNK        -0.1990 
     29 N          24.3207   -0.2643   -2.7748 N.am      3 UNK        -0.4232 
     30 C          25.3650   -1.0667   -3.0226 C.2       2 UNK         0.4993 
     31 O          26.1998   -0.8583   -3.9081 O.2       2 UNK        -0.5286 
     32 CA         25.4637   -2.3471   -2.1919 C.3       2 UNK         0.0209 
     33 CB         24.8007   -3.5273   -2.9250 C.3       2 UNK        -0.1931 
     34 N          26.8750   -2.6319   -1.9515 N.am      2 UNK        -0.4546 
     35 C          27.3446   -3.2932   -0.8883 C.2       1 UNK         0.5154 
     36 O          26.6214   -3.8365   -0.0481 O.2       1 UNK        -0.5181 
     37 C          27.2427   -0.6072   -7.3977 C.2       5 UNK         0.5014 
     38 O          27.7389   -0.3615   -8.4945 O.2       5 UNK        -0.5248 
     39 N          27.2667    0.2409   -6.3569 N.am      6 UNK        -0.4434 
     40 CA         27.9309    1.5519   -6.3419 C.3       6 UNK         0.0363 
     41 CB         27.7440    2.1963   -4.9601 C.3       6 UNK        -0.1936 
     42 C          27.4624    2.5163   -7.4482 C.2       6 UNK         0.5081 
     43 O          28.2586    3.3187   -7.9356 O.2       6 UNK        -0.5248 
     44 N          26.1852    2.4147   -7.8361 N.am      7 UNK        -0.4718 
     45 CA         25.5936    3.1459   -8.9568 C.3       7 UNK         0.0273 
     46 CB         24.0625    3.0753   -8.8352 C.3       7 UNK        -0.1935 
     47 C          26.0398    2.6367  -10.3423 C.2       7 UNK         0.5018 
     48 O          25.8904    3.3772  -11.3157 O.2       7 UNK        -0.5186 
     49 N          26.5401    1.3960  -10.4248 N.am      8 UNK        -0.4240 
     50 CA         26.8900    0.7170  -11.6738 C.3       8 UNK         0.0235 
     51 CB         26.2400   -0.6772  -11.6816 C.3       8 UNK        -0.2000 
     52 C          28.4071    0.5928  -11.8792 C.2       8 UNK         0.4941 
     53 O          28.8603    0.7083  -13.0192 O.2       8 UNK        -0.5273 
     54 N          29.1644    0.3426  -10.8044 N.am      9 UNK        -0.4262 
     55 CA         30.6050    0.0955  -10.8323 C.3       9 UNK         0.0264 
     56 CB         30.8518   -1.4216  -10.9220 C.3       9 UNK        -0.1955 
     57 C          31.2728    0.6817   -9.5832 C.2       9 UNK         0.5031 
     58 O          30.6097    0.8916   -8.5665 O.2       9 UNK        -0.5390 
     59 N          32.5869    0.9190   -9.6792 N.am      10 UNK        -0.4204 
     60 CA         33.4238    1.4063   -8.5813 C.3       10 UNK         0.0237 
     61 CB         34.7899    1.8358   -9.1420 C.3       10 UNK        -0.1985 
     62 C          33.6026    0.3477   -7.4794 C.2       10 UNK         0.4970 
     63 O          33.6361   -0.8493   -7.7752 O.2       10 UNK        -0.4914 
     64 N          33.7507    0.8220   -6.2385 N.am      11 UNK        -0.4285 
     65 CA         33.9142   -0.0079   -5.0335 C.3       11 UNK         0.1007 
     66 C          35.3258   -0.6412   -4.8608 C.2       11 UNK         0.5703 
     67 N          36.3214   -0.2850   -5.6646 N.am      11 UNK        -0.7361 
     68 O          35.5213   -1.4775   -3.9823 O.2       11 UNK        -0.4986 
     69 C69        33.4840    0.7575   -3.7519 C.3       12 UNK        -0.0947 
     70 S70        31.7992    1.4550   -3.8653 S.3       12 UNK        -0.2240 
     71 C71        30.8202    0.2014   -2.9799 C.3       12 UNK         0.0194 
     72 H72        28.7270   -1.4899    3.3323 H         1 UNK         0.0906 
     73 H73        29.8821   -2.8070    3.1197 H         1 UNK         0.0906 
     74 H74        30.3939   -1.1372    2.8688 H         1 UNK         0.0906 
     75 H75        29.5467   -3.9095    1.1938 H         1 UNK         0.3140 
     76 H76        29.3030   -2.5626   -1.3328 H         1 UNK         0.1085 
     77 H77        28.9820   -5.5465   -0.6921 H         1 UNK         0.0836 
     78 H78        29.1723   -4.8682   -2.2871 H         1 UNK         0.0836 
     79 H79        31.5611   -5.6787   -3.2719 H         1 UNK         0.0731 
     80 H80        32.9518   -4.7592   -2.7484 H         1 UNK         0.0731 
     81 H81        31.7344   -2.1417   -1.9422 H         1 UNK         0.1312 
     82 H82        30.0536   -0.4746   -5.5136 H         1 UNK         0.1406 
     83 H83        30.9731   -4.6554   -5.3334 H         1 UNK         0.1631 
     84 H84        30.8828   -3.1787   -7.5929 H         1 UNK         0.0717 
     85 H85        29.8654   -1.7731   -7.4940 H         1 UNK         0.0717 
     86 H86        26.6314   -3.6840   -5.9129 H         1 UNK         0.0934 
     87 H87        27.7262   -2.4303   -5.4258 H         1 UNK         0.0934 
     88 H88        26.3875   -2.4010   -8.1825 H         1 UNK         0.0739 
     89 H89        25.0476   -1.7133   -5.6850 H         1 UNK         0.3093 
     90 H90        22.3895   -0.0087   -7.2446 H         1 UNK         0.0818 
     91 H91        20.9148   -1.7265   -6.2182 H         1 UNK         0.0819 
     92 H92        21.6529   -2.3589   -7.6792 H         1 UNK         0.0819 
     93 H93        22.2634   -2.8591   -6.1084 H         1 UNK         0.0819 
     94 H94        22.7523   -0.9574   -4.5732 H         1 UNK         0.3041 
     95 H95        24.9186    1.6142   -3.4283 H         1 UNK         0.0784 
     96 H96        22.6439    2.6483   -3.3554 H         1 UNK         0.0793 
     97 H97        21.9472    1.1144   -2.8524 H         1 UNK         0.0793 
     98 H98        23.0835    1.9611   -1.8016 H         1 UNK         0.0793 
     99 H99        23.6763   -0.5114   -2.0368 H         1 UNK         0.3024 
    100 H100       24.9607   -2.1821   -1.2358 H         1 UNK         0.1171 
    101 H101       24.8370   -4.4363   -2.3243 H         1 UNK         0.0786 
    102 H102       23.7500   -3.3222   -3.1338 H         1 UNK         0.0786 
    103 H103       25.2900   -3.7387   -3.8758 H         1 UNK         0.0786 
    104 H104       27.5087   -2.1760   -2.5967 H         1 UNK         0.2977 
    105 H105       26.8355   -0.0562   -5.4838 H         1 UNK         0.3127 
    106 H106       28.9965    1.3760   -6.4958 H         1 UNK         0.0770 
    107 H107       26.7033    2.4686   -4.7838 H         1 UNK         0.0814 
    108 H108       28.3388    3.1064   -4.8732 H         1 UNK         0.0814 
    109 H109       28.0544    1.5261   -4.1597 H         1 UNK         0.0814 
    110 H110       25.5684    1.8040   -7.3091 H         1 UNK         0.2983 
    111 H111       25.8964    4.1926   -8.8818 H         1 UNK         0.0947 
    112 H112       23.5778    3.6291   -9.6404 H         1 UNK         0.0806 
    113 H113       23.7194    3.5057   -7.8941 H         1 UNK         0.0806 
    114 H114       23.7034    2.0460   -8.8821 H         1 UNK         0.0806 
    115 H115       26.6993    0.8703   -9.5703 H         1 UNK         0.3000 
    116 H116       26.4912    1.2709  -12.5264 H         1 UNK         0.0850 
    117 H117       26.4631   -1.2085  -12.6077 H         1 UNK         0.0810 
    118 H118       25.1551   -0.6078  -11.5991 H         1 UNK         0.0810 
    119 H119       26.5956   -1.2948  -10.8556 H         1 UNK         0.0810 
    120 H120       28.7313    0.2609   -9.8836 H         1 UNK         0.3040 
    121 H121       31.0456    0.5850  -11.7036 H         1 UNK         0.0766 
    122 H122       30.4051   -1.9487  -10.0779 H         1 UNK         0.0812 
    123 H123       31.9180   -1.6516  -10.9238 H         1 UNK         0.0812 
    124 H124       30.4293   -1.8380  -11.8365 H         1 UNK         0.0812 
    125 H125       33.0635    0.6776  -10.5358 H         1 UNK         0.3205 
    126 H126       32.9328    2.2814   -8.1492 H         1 UNK         0.0754 
    127 H127       34.6816    2.6088   -9.9033 H         1 UNK         0.0769 
    128 H128       35.3253    0.9967   -9.5888 H         1 UNK         0.0769 
    129 H129       35.4253    2.2467   -8.3563 H         1 UNK         0.0769 
    130 H130       33.7214    1.8184   -6.0821 H         1 UNK         0.2981 
    131 H131       33.2408   -0.8590   -5.1429 H         1 UNK         0.0541 
    132 H132       36.1731    0.3951   -6.3918 H         1 UNK         0.3459 
    133 H133       37.2287   -0.7064   -5.5425 H         1 UNK         0.3459 
    134 H134       34.1727    1.5813   -3.5566 H         1 UNK         0.0612 
    135 H135       33.5368    0.1063   -2.8774 H         1 UNK         0.0612 
    136 H136       31.1701    0.1446   -1.9478 H         1 UNK         0.0624 
    137 H137       29.7823    0.5297   -2.9305 H         1 UNK         0.0624 
@<TRIPOS>BOND
     1    1    2 1    
     2    1   72 1    
     3    1   73 1    
     4    1   74 1    
     5    2    3 2    
     6    2    4 am   BACKBONE|DICT|INTERRES
     7    4    5 1    
     8    4   75 1    
     9    5    6 1    
    10    5   35 1    
    11    5   76 1    
    12    6    7 1    
    13    6   77 1    
    14    6   78 1    
    15    7    8 1    
    16    8    9 1    
    17    8   79 1    
    18    8   80 1    
    19    9   10 ar   
    20    9   14 ar   
    21   10   11 ar   
    22   10   81 1    
    23   11   12 ar   
    24   11   71 1    
    25   12   13 ar   
    26   12   82 1    
    27   13   14 ar   
    28   13   15 1    
    29   14   83 1    
    30   15   16 1    
    31   15   84 1    
    32   15   85 1    
    33   16   17 1    
    34   17   18 1    
    35   17   86 1    
    36   17   87 1    
    37   18   19 1    
    38   18   37 1    
    39   18   88 1    
    40   19   20 am   BACKBONE|DICT|INTERRES
    41   19   89 1    
    42   20   21 2    
    43   20   22 1    
    44   22   23 1    
    45   22   24 1    
    46   22   90 1    
    47   23   91 1    
    48   23   92 1    
    49   23   93 1    
    50   24   25 am   BACKBONE|DICT|INTERRES
    51   24   94 1    
    52   25   26 2    
    53   25   27 1    
    54   27   28 1    
    55   27   29 1    
    56   27   95 1    
    57   28   96 1    
    58   28   97 1    
    59   28   98 1    
    60   29   30 am   BACKBONE|DICT|INTERRES
    61   29   99 1    
    62   30   31 2    
    63   30   32 1    
    64   32   33 1    
    65   32   34 1    
    66   32  100 1    
    67   33  101 1    
    68   33  102 1    
    69   33  103 1    
    70   34   35 am   BACKBONE|DICT|INTERRES
    71   34  104 1    
    72   35   36 2    
    73   37   38 2    
    74   37   39 am   BACKBONE|DICT|INTERRES
    75   39   40 1    
    76   39  105 1    
    77   40   41 1    
    78   40   42 1    
    79   40  106 1    
    80   41  107 1    
    81   41  108 1    
    82   41  109 1    
    83   42   43 2    
    84   42   44 am   BACKBONE|DICT|INTERRES
    85   44   45 1    
    86   44  110 1    
    87   45   46 1    
    88   45   47 1    
    89   45  111 1    
    90   46  112 1    
    91   46  113 1    
    92   46  114 1    
    93   47   48 2    
    94   47   49 am   BACKBONE|DICT|INTERRES
    95   49   50 1    
    96   49  115 1    
    97   50   51 1    
    98   50   52 1    
    99   50  116 1    
   100   51  117 1    
   101   51  118 1    
   102   51  119 1    
   103   52   53 2    
   104   52   54 am   BACKBONE|DICT|INTERRES
   105   54   55 1    
   106   54  120 1    
   107   55   56 1    
   108   55   57 1    
   109   55  121 1    
   110   56  122 1    
   111   56  123 1    
   112   56  124 1    
   113   57   58 2    
   114   57   59 am   BACKBONE|DICT|INTERRES
   115   59   60 1    
   116   59  125 1    
   117   60   61 1    
   118   60   62 1    
   119   60  126 1    
   120   61  127 1    
   121   61  128 1    
   122   61  129 1    
   123   62   63 2    
   124   62   64 am   BACKBONE|DICT|INTERRES
   125   64   65 1    
   126   64  130 1    
   127   65   66 1    
   128   65   69 1    
   129   65  131 1    
   130   66   67 am   BACKBONE|DICT|INTERRES
   131   66   68 2    
   132   67  132 1    
   133   67  133 1    
   134   69   70 1    
   135   69  134 1    
   136   69  135 1    
   137   70   71 1    
   138   71  136 1    
   139   71  137 1    
@<TRIPOS>SUBSTRUCTURE
     1 UNK         1 GROUP             0       ****    0 ROOT    
