@<TRIPOS>MOLECULE
3R137
137   139    1
SMALL
USER_CHARGES


@<TRIPOS>ATOM
      1 CA         22.8930   -7.1041   -4.1537 C.3       0 UNK        -0.2020 
      2 C          23.6354   -6.2359   -3.1492 C.2       0 UNK         0.4855 
      3 O          23.5393   -6.4732   -1.9450 O.2       0 UNK        -0.5197 
      4 N          24.3729   -5.2279   -3.6335 N.am      1 UNK        -0.4892 
      5 CA         25.1820   -4.3095   -2.8160 C.3       1 UNK         0.0835 
      6 C6         26.2803   -3.5941   -3.6491 C.3       12 UNK        -0.0855 
      7 S7         27.2899   -4.7563   -4.6309 S.3       12 UNK        -0.2931 
      8 C8         28.7658   -4.9839   -3.5833 C.3       12 UNK         0.0378 
      9 C9         29.8911   -3.9989   -3.8890 C.ar      12 UNK        -0.0802 
     10 C10        30.3147   -3.7876   -5.2064 C.ar      12 UNK        -0.0944 
     11 C11        31.3981   -2.9494   -5.4836 C.ar      12 UNK        -0.0787 
     12 C12        32.0668   -2.3201   -4.4299 C.ar      12 UNK        -0.0862 
     13 C13        31.6522   -2.5142   -3.1086 C.ar      12 UNK        -0.0733 
     14 C14        30.5656   -3.3562   -2.8448 C.ar      12 UNK        -0.0832 
     15 C15        32.3878   -1.8241   -1.9667 C.3       12 UNK         0.0240 
     16 S16        31.3548   -0.5800   -1.1272 S.3       12 UNK        -0.2522 
     17 C17        31.1057    0.6704   -2.4367 C.3       12 UNK        -0.0967 
     18 CA         29.8294    0.4054   -3.2810 C.3       5 UNK         0.0660 
     19 N          28.6162    0.2145   -2.4828 N.am      5 UNK        -0.4015 
     20 C          27.9483    1.1408   -1.7851 C.2       4 UNK         0.4946 
     21 O          28.3037    2.3137   -1.6522 O.2       4 UNK        -0.5353 
     22 CA         26.6217    0.6636   -1.1701 C.3       4 UNK         0.0277 
     23 CB         26.3557    1.3294    0.1919 C.3       4 UNK        -0.1981 
     24 N          25.4628    0.8859   -2.0417 N.am      4 UNK        -0.4209 
     25 C          25.3119    0.4931   -3.3154 C.2       3 UNK         0.4942 
     26 O          26.1818   -0.0653   -3.9880 O.2       3 UNK        -0.5208 
     27 CA         23.9017    0.6605   -3.9007 C.3       3 UNK         0.0250 
     28 CB         23.9108    0.7556   -5.4374 C.3       3 UNK        -0.1990 
     29 N          23.1224   -0.5071   -3.4994 N.am      3 UNK        -0.4232 
     30 C          22.5473   -0.6670   -2.2994 C.2       2 UNK         0.4993 
     31 O          22.4051    0.2403   -1.4786 O.2       2 UNK        -0.5286 
     32 CA         22.1235   -2.0992   -1.9345 C.3       2 UNK         0.0209 
     33 CB         20.7015   -2.3950   -2.4378 C.3       2 UNK        -0.1931 
     34 N          23.0529   -3.1049   -2.4637 N.am      2 UNK        -0.4546 
     35 C          24.3241   -3.2701   -2.0600 C.2       1 UNK         0.5154 
     36 O          24.8332   -2.6267   -1.1415 O.2       1 UNK        -0.5181 
     37 C          29.6209    1.4228   -4.4237 C.2       5 UNK         0.5014 
     38 O          30.5197    2.2101   -4.7235 O.2       5 UNK        -0.5248 
     39 N          28.4381    1.3726   -5.0494 N.am      6 UNK        -0.4434 
     40 CA         28.0426    2.2026   -6.1862 C.3       6 UNK         0.0363 
     41 CB         27.2848    3.4418   -5.6727 C.3       6 UNK        -0.1936 
     42 C          27.2250    1.3864   -7.2026 C.2       6 UNK         0.5081 
     43 O          26.4358    1.9622   -7.9522 O.2       6 UNK        -0.5248 
     44 N          27.4114    0.0577   -7.2099 N.am      7 UNK        -0.4718 
     45 CA         26.7074   -0.8853   -8.0861 C.3       7 UNK         0.0273 
     46 CB         26.9444   -2.3132   -7.5711 C.3       7 UNK        -0.1935 
     47 C          27.1076   -0.7729   -9.5683 C.2       7 UNK         0.5018 
     48 O          26.3187   -1.1448  -10.4382 O.2       7 UNK        -0.5186 
     49 N          28.3129   -0.2592   -9.8262 N.am      8 UNK        -0.4240 
     50 CA         28.8723    0.0288  -11.1390 C.3       8 UNK         0.0235 
     51 CB         29.5561   -1.2322  -11.6990 C.3       8 UNK        -0.2000 
     52 C          29.8772    1.1723  -10.9732 C.2       8 UNK         0.4941 
     53 O          30.3391    1.4218   -9.8567 O.2       8 UNK        -0.5273 
     54 N          30.2464    1.8151  -12.0889 N.am      9 UNK        -0.4262 
     55 CA         31.2297    2.9071  -12.1368 C.3       9 UNK         0.0264 
     56 CB         31.2635    3.4951  -13.5572 C.3       9 UNK        -0.1955 
     57 C          32.6488    2.5034  -11.6869 C.2       9 UNK         0.5031 
     58 O          33.4258    3.3720  -11.2888 O.2       9 UNK        -0.5390 
     59 N          32.9564    1.2010  -11.7503 N.am      10 UNK        -0.4204 
     60 CA         34.1995    0.6039  -11.2647 C.3       10 UNK         0.0237 
     61 CB         34.3690   -0.7813  -11.9116 C.3       10 UNK        -0.1985 
     62 C          34.2751    0.4878   -9.7299 C.2       10 UNK         0.4970 
     63 O          35.3813    0.3306   -9.2107 O.2       10 UNK        -0.4914 
     64 N          33.1310    0.5322   -9.0307 N.am      11 UNK        -0.4285 
     65 CA         33.0633    0.4263   -7.5663 C.3       11 UNK         0.1007 
     66 C          33.5830    1.7074   -6.8592 C.2       11 UNK         0.5703 
     67 N          34.2473    1.5613   -5.7199 N.am      11 UNK        -0.7361 
     68 O          33.3690    2.8284   -7.3168 O.2       11 UNK        -0.4986 
     69 C69        31.6420    0.0597   -7.0655 C.3       12 UNK        -0.0947 
     70 S70        30.9612   -1.4637   -7.8021 S.3       12 UNK        -0.2240 
     71 C71        31.8736   -2.7682   -6.9182 C.3       12 UNK         0.0194 
     72 H72        23.2167   -8.1408   -4.0641 H         1 UNK         0.0906 
     73 H73        21.8206   -7.0645   -3.9643 H         1 UNK         0.0906 
     74 H74        23.0685   -6.7824   -5.1801 H         1 UNK         0.0906 
     75 H75        24.4498   -5.1001   -4.6332 H         1 UNK         0.3140 
     76 H76        25.6855   -4.9051   -2.0509 H         1 UNK         0.1085 
     77 H77        26.9362   -3.0057   -3.0043 H         1 UNK         0.0836 
     78 H78        25.8273   -2.8807   -4.3399 H         1 UNK         0.0836 
     79 H79        28.4750   -4.9390   -2.5326 H         1 UNK         0.0731 
     80 H80        29.1480   -5.9920   -3.7484 H         1 UNK         0.0731 
     81 H81        29.8109   -4.2926   -6.0192 H         1 UNK         0.1312 
     82 H82        32.9141   -1.6822   -4.6393 H         1 UNK         0.1406 
     83 H83        30.2574   -3.5185   -1.8205 H         1 UNK         0.1631 
     84 H84        33.3052   -1.3498   -2.3189 H         1 UNK         0.0717 
     85 H85        32.6944   -2.5750   -1.2373 H         1 UNK         0.0717 
     86 H86        31.0454    1.6513   -1.9619 H         1 UNK         0.0934 
     87 H87        31.9914    0.6975   -3.0744 H         1 UNK         0.0934 
     88 H88        29.9699   -0.5415   -3.7995 H         1 UNK         0.0739 
     89 H89        28.1935   -0.6987   -2.5646 H         1 UNK         0.3093 
     90 H90        26.6941   -0.4127   -0.9991 H         1 UNK         0.0818 
     91 H91        25.4792    0.9010    0.6787 H         1 UNK         0.0819 
     92 H92        27.2010    1.1879    0.8668 H         1 UNK         0.0819 
     93 H93        26.1942    2.4037    0.0928 H         1 UNK         0.0819 
     94 H94        24.6519    1.2856   -1.5890 H         1 UNK         0.3041 
     95 H95        23.4507    1.5716   -3.5010 H         1 UNK         0.0784 
     96 H96        22.9011    0.8676   -5.8324 H         1 UNK         0.0793 
     97 H97        24.4846    1.6208   -5.7698 H         1 UNK         0.0793 
     98 H98        24.3539   -0.1270   -5.9005 H         1 UNK         0.0793 
     99 H99        23.2083   -1.3212   -4.0895 H         1 UNK         0.3024 
    100 H100       22.1281   -2.1744   -0.8445 H         1 UNK         0.1171 
    101 H101       20.6375   -2.3511   -3.5258 H         1 UNK         0.0786 
    102 H102       19.9896   -1.6702   -2.0399 H         1 UNK         0.0786 
    103 H103       20.3664   -3.3828   -2.1208 H         1 UNK         0.0786 
    104 H104       22.7157   -3.7001   -3.2065 H         1 UNK         0.2977 
    105 H105       27.7220    0.7339   -4.7029 H         1 UNK         0.3127 
    106 H106       28.9333    2.5392   -6.7213 H         1 UNK         0.0770 
    107 H107       26.3696    3.1633   -5.1498 H         1 UNK         0.0814 
    108 H108       27.0077    4.1046   -6.4934 H         1 UNK         0.0814 
    109 H109       27.8989    4.0220   -4.9839 H         1 UNK         0.0814 
    110 H110       28.0893   -0.3373   -6.5747 H         1 UNK         0.2983 
    111 H111       25.6386   -0.6701   -8.0237 H         1 UNK         0.0947 
    112 H112       26.4136   -3.0443   -8.1822 H         1 UNK         0.0806 
    113 H113       26.5852   -2.4257   -6.5492 H         1 UNK         0.0806 
    114 H114       28.0017   -2.5808   -7.5860 H         1 UNK         0.0806 
    115 H115       28.8891    0.0596   -9.0562 H         1 UNK         0.3000 
    116 H116       28.0764    0.3564  -11.8115 H         1 UNK         0.0850 
    117 H117       30.3670   -1.5704  -11.0519 H         1 UNK         0.0810 
    118 H118       28.8474   -2.0545  -11.7993 H         1 UNK         0.0810 
    119 H119       29.9776   -1.0496  -12.6880 H         1 UNK         0.0810 
    120 H120       29.8260    1.5473  -12.9681 H         1 UNK         0.3040 
    121 H121       30.8880    3.6864  -11.4522 H         1 UNK         0.0766 
    122 H122       30.2859    3.8756  -13.8539 H         1 UNK         0.0812 
    123 H123       31.5754    2.7541  -14.2943 H         1 UNK         0.0812 
    124 H124       31.9643    4.3292  -13.6178 H         1 UNK         0.0812 
    125 H125       32.2577    0.5678  -12.1094 H         1 UNK         0.3205 
    126 H126       35.0316    1.2347  -11.5851 H         1 UNK         0.0754 
    127 H127       35.3066   -1.2453  -11.6018 H         1 UNK         0.0769 
    128 H128       34.3892   -0.7123  -12.9996 H         1 UNK         0.0769 
    129 H129       33.5620   -1.4599  -11.6315 H         1 UNK         0.0769 
    130 H130       32.2533    0.7308   -9.4967 H         1 UNK         0.2981 
    131 H131       33.7284   -0.3893   -7.2777 H         1 UNK         0.0541 
    132 H132       34.5784    2.3846   -5.2423 H         1 UNK         0.3459 
    133 H133       34.4424    0.6500   -5.3383 H         1 UNK         0.3459 
    134 H134       30.9463    0.8715   -7.2839 H         1 UNK         0.0612 
    135 H135       31.6394   -0.0516   -5.9820 H         1 UNK         0.0612 
    136 H136       31.7422   -3.7045   -7.4626 H         1 UNK         0.0624 
    137 H137       32.9430   -2.5581   -6.9450 H         1 UNK         0.0624 
@<TRIPOS>BOND
     1    1    2 1    
     2    1   72 1    
     3    1   73 1    
     4    1   74 1    
     5    2    3 2    
     6    2    4 am   BACKBONE|DICT|INTERRES
     7    4    5 1    
     8    4   75 1    
     9    5    6 1    
    10    5   35 1    
    11    5   76 1    
    12    6    7 1    
    13    6   77 1    
    14    6   78 1    
    15    7    8 1    
    16    8    9 1    
    17    8   79 1    
    18    8   80 1    
    19    9   10 ar   
    20    9   14 ar   
    21   10   11 ar   
    22   10   81 1    
    23   11   12 ar   
    24   11   71 1    
    25   12   13 ar   
    26   12   82 1    
    27   13   14 ar   
    28   13   15 1    
    29   14   83 1    
    30   15   16 1    
    31   15   84 1    
    32   15   85 1    
    33   16   17 1    
    34   17   18 1    
    35   17   86 1    
    36   17   87 1    
    37   18   19 1    
    38   18   37 1    
    39   18   88 1    
    40   19   20 am   BACKBONE|DICT|INTERRES
    41   19   89 1    
    42   20   21 2    
    43   20   22 1    
    44   22   23 1    
    45   22   24 1    
    46   22   90 1    
    47   23   91 1    
    48   23   92 1    
    49   23   93 1    
    50   24   25 am   BACKBONE|DICT|INTERRES
    51   24   94 1    
    52   25   26 2    
    53   25   27 1    
    54   27   28 1    
    55   27   29 1    
    56   27   95 1    
    57   28   96 1    
    58   28   97 1    
    59   28   98 1    
    60   29   30 am   BACKBONE|DICT|INTERRES
    61   29   99 1    
    62   30   31 2    
    63   30   32 1    
    64   32   33 1    
    65   32   34 1    
    66   32  100 1    
    67   33  101 1    
    68   33  102 1    
    69   33  103 1    
    70   34   35 am   BACKBONE|DICT|INTERRES
    71   34  104 1    
    72   35   36 2    
    73   37   38 2    
    74   37   39 am   BACKBONE|DICT|INTERRES
    75   39   40 1    
    76   39  105 1    
    77   40   41 1    
    78   40   42 1    
    79   40  106 1    
    80   41  107 1    
    81   41  108 1    
    82   41  109 1    
    83   42   43 2    
    84   42   44 am   BACKBONE|DICT|INTERRES
    85   44   45 1    
    86   44  110 1    
    87   45   46 1    
    88   45   47 1    
    89   45  111 1    
    90   46  112 1    
    91   46  113 1    
    92   46  114 1    
    93   47   48 2    
    94   47   49 am   BACKBONE|DICT|INTERRES
    95   49   50 1    
    96   49  115 1    
    97   50   51 1    
    98   50   52 1    
    99   50  116 1    
   100   51  117 1    
   101   51  118 1    
   102   51  119 1    
   103   52   53 2    
   104   52   54 am   BACKBONE|DICT|INTERRES
   105   54   55 1    
   106   54  120 1    
   107   55   56 1    
   108   55   57 1    
   109   55  121 1    
   110   56  122 1    
   111   56  123 1    
   112   56  124 1    
   113   57   58 2    
   114   57   59 am   BACKBONE|DICT|INTERRES
   115   59   60 1    
   116   59  125 1    
   117   60   61 1    
   118   60   62 1    
   119   60  126 1    
   120   61  127 1    
   121   61  128 1    
   122   61  129 1    
   123   62   63 2    
   124   62   64 am   BACKBONE|DICT|INTERRES
   125   64   65 1    
   126   64  130 1    
   127   65   66 1    
   128   65   69 1    
   129   65  131 1    
   130   66   67 am   BACKBONE|DICT|INTERRES
   131   66   68 2    
   132   67  132 1    
   133   67  133 1    
   134   69   70 1    
   135   69  134 1    
   136   69  135 1    
   137   70   71 1    
   138   71  136 1    
   139   71  137 1    
@<TRIPOS>SUBSTRUCTURE
     1 UNK         1 GROUP             0       ****    0 ROOT    
