@<TRIPOS>MOLECULE
3R137
137   139    1
SMALL
USER_CHARGES


@<TRIPOS>ATOM
      1 CA         26.9283   -7.9418    0.6123 C.3       0 UNK        -0.2020 
      2 C          26.4319   -6.6089    0.0719 C.2       0 UNK         0.4855 
      3 O          25.2235   -6.3720    0.0414 O.2       0 UNK        -0.5197 
      4 N          27.3542   -5.7335   -0.3452 N.am      1 UNK        -0.4892 
      5 CA         27.0614   -4.4382   -0.9665 C.3       1 UNK         0.0835 
      6 C6         28.2511   -3.4535   -0.8119 C.3       12 UNK        -0.0855 
      7 S7         29.8350   -4.0447   -1.5150 S.3       12 UNK        -0.2931 
      8 C8         29.8707   -3.2082   -3.1331 C.3       12 UNK         0.0378 
      9 C9         30.5888   -1.8669   -3.0844 C.ar      12 UNK        -0.0802 
     10 C10        31.9011   -1.7601   -3.5472 C.ar      12 UNK        -0.0944 
     11 C11        32.5542   -0.5258   -3.5570 C.ar      12 UNK        -0.0787 
     12 C12        31.8888    0.6088   -3.0777 C.ar      12 UNK        -0.0862 
     13 C13        30.5784    0.5198   -2.5893 C.ar      12 UNK        -0.0733 
     14 C14        29.9372   -0.7268   -2.6091 C.ar      12 UNK        -0.0832 
     15 C15        29.9175    1.7797   -2.0136 C.3       12 UNK         0.0240 
     16 S16        28.1506    1.6211   -1.5530 S.3       12 UNK        -0.2522 
     17 C17        27.2369    2.1555   -3.0418 C.3       12 UNK        -0.0967 
     18 CA         27.0667    1.0359   -4.1170 C.3       5 UNK         0.0660 
     19 N          25.7295    1.0359   -4.7176 N.am      5 UNK        -0.4015 
     20 C          25.2531    1.9287   -5.6010 C.2       4 UNK         0.4946 
     21 O          25.8987    2.8998   -6.0011 O.2       4 UNK        -0.5353 
     22 CA         23.8344    1.6900   -6.1472 C.3       4 UNK         0.0277 
     23 CB         23.6777    2.1765   -7.6005 C.3       4 UNK        -0.1981 
     24 N          23.4655    0.2740   -6.0665 N.am      4 UNK        -0.4209 
     25 C          22.3786   -0.2045   -5.4513 C.2       3 UNK         0.4942 
     26 O          21.5166    0.5011   -4.9259 O.2       3 UNK        -0.5208 
     27 CA         22.2226   -1.7360   -5.4016 C.3       3 UNK         0.0250 
     28 CB         21.4031   -2.2212   -6.6090 C.3       3 UNK        -0.1990 
     29 N          23.4664   -2.5186   -5.3208 N.am      3 UNK        -0.4232 
     30 C          24.4352   -2.3758   -4.4050 C.2       2 UNK         0.4993 
     31 O          24.5174   -1.4255   -3.6213 O.2       2 UNK        -0.5286 
     32 CA         25.5049   -3.4726   -4.3613 C.3       2 UNK         0.0209 
     33 CB         26.6400   -3.1971   -5.3649 C.3       2 UNK        -0.1931 
     34 N          26.0333   -3.5308   -3.0003 N.am      2 UNK        -0.4546 
     35 C          26.6129   -4.5977   -2.4382 C.2       1 UNK         0.5154 
     36 O          26.8136   -5.6556   -3.0426 O.2       1 UNK        -0.5181 
     37 C          28.1487    1.0087   -5.2214 C.2       5 UNK         0.5014 
     38 O          28.1130    0.1185   -6.0744 O.2       5 UNK        -0.5248 
     39 N          29.0519    1.9972   -5.2231 N.am      6 UNK        -0.4434 
     40 CA         30.1651    2.1548   -6.1561 C.3       6 UNK         0.0363 
     41 CB         30.9832    3.3923   -5.7528 C.3       6 UNK        -0.1936 
     42 C          29.7523    2.2569   -7.6311 C.2       6 UNK         0.5081 
     43 O          30.5242    1.8310   -8.4893 O.2       6 UNK        -0.5248 
     44 N          28.5556    2.7934   -7.9067 N.am      7 UNK        -0.4718 
     45 CA         28.0105    2.9061   -9.2617 C.3       7 UNK         0.0273 
     46 CB         26.8764    3.9424   -9.2734 C.3       7 UNK        -0.1935 
     47 C          27.5268    1.5594   -9.8263 C.2       7 UNK         0.5018 
     48 O          27.5400    1.3840  -11.0447 O.2       7 UNK        -0.5186 
     49 N          27.1238    0.6356   -8.9427 N.am      8 UNK        -0.4240 
     50 CA         26.7247   -0.7268   -9.3000 C.3       8 UNK         0.0235 
     51 CB         25.6077   -1.2029   -8.3585 C.3       8 UNK        -0.2000 
     52 C          27.9234   -1.6858   -9.2657 C.2       8 UNK         0.4941 
     53 O          28.0465   -2.5301  -10.1529 O.2       8 UNK        -0.5273 
     54 N          28.7934   -1.5298   -8.2578 N.am      9 UNK        -0.4262 
     55 CA         30.0086   -2.3267   -8.0682 C.3       9 UNK         0.0264 
     56 CB         30.4851   -2.1525   -6.6198 C.3       9 UNK        -0.1955 
     57 C          31.1478   -1.9854   -9.0474 C.2       9 UNK         0.5031 
     58 O          32.0901   -2.7712   -9.1556 O.2       9 UNK        -0.5390 
     59 N          31.0511   -0.8293   -9.7210 N.am      10 UNK        -0.4204 
     60 CA         32.0391   -0.2329  -10.6280 C.3       10 UNK         0.0237 
     61 CB         32.3045   -1.1320  -11.8552 C.3       10 UNK        -0.1985 
     62 C          33.3239    0.2094   -9.8992 C.2       10 UNK         0.4970 
     63 O          34.4164    0.1138  -10.4619 O.2       10 UNK        -0.4914 
     64 N          33.1589    0.7142   -8.6704 N.am      11 UNK        -0.4285 
     65 CA         34.2134    1.3713   -7.8831 C.3       11 UNK         0.1007 
     66 C          34.3603    2.8836   -8.2171 C.2       11 UNK         0.5703 
     67 N          33.4072    3.5114   -8.8984 N.am      11 UNK        -0.7361 
     68 O          35.3638    3.4956   -7.8597 O.2       11 UNK        -0.4986 
     69 C69        34.0242    1.1619   -6.3572 C.3       12 UNK        -0.0947 
     70 S70        34.0964   -0.5889   -5.8671 S.3       12 UNK        -0.2240 
     71 C71        33.9910   -0.4466   -4.0539 C.3       12 UNK         0.0194 
     72 H72        26.5960   -8.0773    1.6413 H         1 UNK         0.0906 
     73 H73        26.5292   -8.7606    0.0143 H         1 UNK         0.0906 
     74 H74        28.0160   -8.0090    0.5959 H         1 UNK         0.0906 
     75 H75        28.3319   -5.9896   -0.3373 H         1 UNK         0.3140 
     76 H76        26.2124   -4.0044   -0.4323 H         1 UNK         0.1085 
     77 H77        28.4209   -3.2694    0.2502 H         1 UNK         0.0836 
     78 H78        27.9907   -2.4803   -1.2238 H         1 UNK         0.0836 
     79 H79        30.3624   -3.8692   -3.8485 H         1 UNK         0.0731 
     80 H80        28.8589   -3.0658   -3.5091 H         1 UNK         0.0731 
     81 H81        32.4151   -2.6375   -3.9156 H         1 UNK         0.1312 
     82 H82        32.4008    1.5613   -3.0665 H         1 UNK         0.1406 
     83 H83        28.9276   -0.8234   -2.2475 H         1 UNK         0.1631 
     84 H84        30.0454    2.6199   -2.6956 H         1 UNK         0.0717 
     85 H85        30.4632    2.0479   -1.1079 H         1 UNK         0.0717 
     86 H86        27.6305    3.0955   -3.4299 H         1 UNK         0.0934 
     87 H87        26.2497    2.4310   -2.6662 H         1 UNK         0.0934 
     88 H88        27.1346    0.0684   -3.6182 H         1 UNK         0.0739 
     89 H89        25.1310    0.2691   -4.4237 H         1 UNK         0.3093 
     90 H90        23.1706    2.2886   -5.5200 H         1 UNK         0.0818 
     91 H91        22.6798    1.9643   -7.9843 H         1 UNK         0.0819 
     92 H92        23.8226    3.2553   -7.6674 H         1 UNK         0.0819 
     93 H93        24.4010    1.7080   -8.2677 H         1 UNK         0.0819 
     94 H94        24.1133   -0.3882   -6.4666 H         1 UNK         0.3041 
     95 H95        21.6539   -1.9615   -4.4971 H         1 UNK         0.0784 
     96 H96        20.4602   -1.6776   -6.6871 H         1 UNK         0.0793 
     97 H97        21.9411   -2.0758   -7.5467 H         1 UNK         0.0793 
     98 H98        21.1553   -3.2794   -6.5235 H         1 UNK         0.0793 
     99 H99        23.5134   -3.3187   -5.9360 H         1 UNK         0.3024 
    100 H100       25.0327   -4.4295   -4.5972 H         1 UNK         0.1171 
    101 H101       27.4263   -3.9487   -5.2950 H         1 UNK         0.0786 
    102 H102       27.0960   -2.2199   -5.2040 H         1 UNK         0.0786 
    103 H103       26.2713   -3.2292   -6.3892 H         1 UNK         0.0786 
    104 H104       25.8432   -2.6986   -2.4545 H         1 UNK         0.2977 
    105 H105       28.9686    2.7078   -4.5133 H         1 UNK         0.3127 
    106 H106       30.7931    1.2683   -6.0564 H         1 UNK         0.0770 
    107 H107       30.3702    4.2943   -5.7402 H         1 UNK         0.0814 
    108 H108       31.8002    3.5725   -6.4522 H         1 UNK         0.0814 
    109 H109       31.4274    3.2731   -4.7650 H         1 UNK         0.0814 
    110 H110       27.9596    3.0911   -7.1435 H         1 UNK         0.2983 
    111 H111       28.8031    3.2670   -9.9215 H         1 UNK         0.0947 
    112 H112       26.4595    4.0552  -10.2752 H         1 UNK         0.0806 
    113 H113       27.2333    4.9233   -8.9593 H         1 UNK         0.0806 
    114 H114       26.0606    3.6562   -8.6108 H         1 UNK         0.0806 
    115 H115       27.2078    0.8474   -7.9563 H         1 UNK         0.3000 
    116 H116       26.3264   -0.7394  -10.3173 H         1 UNK         0.0850 
    117 H117       25.3839   -2.2587   -8.5180 H         1 UNK         0.0810 
    118 H118       24.6855   -0.6534   -8.5429 H         1 UNK         0.0810 
    119 H119       25.8834   -1.0738   -7.3123 H         1 UNK         0.0810 
    120 H120       28.5816   -0.8530   -7.5256 H         1 UNK         0.3040 
    121 H121       29.7527   -3.3775   -8.2190 H         1 UNK         0.0766 
    122 H122       31.3476   -2.7866   -6.4107 H         1 UNK         0.0812 
    123 H123       29.7008   -2.4231   -5.9144 H         1 UNK         0.0812 
    124 H124       30.7803   -1.1240   -6.4105 H         1 UNK         0.0812 
    125 H125       30.2608   -0.2361   -9.5036 H         1 UNK         0.3205 
    126 H126       31.5805    0.6860  -10.9966 H         1 UNK         0.0754 
    127 H127       32.9082   -0.6090  -12.5979 H         1 UNK         0.0769 
    128 H128       31.3736   -1.4228  -12.3421 H         1 UNK         0.0769 
    129 H129       32.8416   -2.0417  -11.5858 H         1 UNK         0.0769 
    130 H130       32.2097    0.8357   -8.3366 H         1 UNK         0.2981 
    131 H131       35.1700    0.9175   -8.1492 H         1 UNK         0.0541 
    132 H132       32.5675    3.0246   -9.1734 H         1 UNK         0.3459 
    133 H133       33.5198    4.4888   -9.1159 H         1 UNK         0.3459 
    134 H134       33.0770    1.5761   -6.0195 H         1 UNK         0.0612 
    135 H135       34.8040    1.6894   -5.8046 H         1 UNK         0.0612 
    136 H136       34.5640   -1.2622   -3.6105 H         1 UNK         0.0624 
    137 H137       34.4710    0.4744   -3.7198 H         1 UNK         0.0624 
@<TRIPOS>BOND
     1    1    2 1    
     2    1   72 1    
     3    1   73 1    
     4    1   74 1    
     5    2    3 2    
     6    2    4 am   BACKBONE|DICT|INTERRES
     7    4    5 1    
     8    4   75 1    
     9    5    6 1    
    10    5   35 1    
    11    5   76 1    
    12    6    7 1    
    13    6   77 1    
    14    6   78 1    
    15    7    8 1    
    16    8    9 1    
    17    8   79 1    
    18    8   80 1    
    19    9   10 ar   
    20    9   14 ar   
    21   10   11 ar   
    22   10   81 1    
    23   11   12 ar   
    24   11   71 1    
    25   12   13 ar   
    26   12   82 1    
    27   13   14 ar   
    28   13   15 1    
    29   14   83 1    
    30   15   16 1    
    31   15   84 1    
    32   15   85 1    
    33   16   17 1    
    34   17   18 1    
    35   17   86 1    
    36   17   87 1    
    37   18   19 1    
    38   18   37 1    
    39   18   88 1    
    40   19   20 am   BACKBONE|DICT|INTERRES
    41   19   89 1    
    42   20   21 2    
    43   20   22 1    
    44   22   23 1    
    45   22   24 1    
    46   22   90 1    
    47   23   91 1    
    48   23   92 1    
    49   23   93 1    
    50   24   25 am   BACKBONE|DICT|INTERRES
    51   24   94 1    
    52   25   26 2    
    53   25   27 1    
    54   27   28 1    
    55   27   29 1    
    56   27   95 1    
    57   28   96 1    
    58   28   97 1    
    59   28   98 1    
    60   29   30 am   BACKBONE|DICT|INTERRES
    61   29   99 1    
    62   30   31 2    
    63   30   32 1    
    64   32   33 1    
    65   32   34 1    
    66   32  100 1    
    67   33  101 1    
    68   33  102 1    
    69   33  103 1    
    70   34   35 am   BACKBONE|DICT|INTERRES
    71   34  104 1    
    72   35   36 2    
    73   37   38 2    
    74   37   39 am   BACKBONE|DICT|INTERRES
    75   39   40 1    
    76   39  105 1    
    77   40   41 1    
    78   40   42 1    
    79   40  106 1    
    80   41  107 1    
    81   41  108 1    
    82   41  109 1    
    83   42   43 2    
    84   42   44 am   BACKBONE|DICT|INTERRES
    85   44   45 1    
    86   44  110 1    
    87   45   46 1    
    88   45   47 1    
    89   45  111 1    
    90   46  112 1    
    91   46  113 1    
    92   46  114 1    
    93   47   48 2    
    94   47   49 am   BACKBONE|DICT|INTERRES
    95   49   50 1    
    96   49  115 1    
    97   50   51 1    
    98   50   52 1    
    99   50  116 1    
   100   51  117 1    
   101   51  118 1    
   102   51  119 1    
   103   52   53 2    
   104   52   54 am   BACKBONE|DICT|INTERRES
   105   54   55 1    
   106   54  120 1    
   107   55   56 1    
   108   55   57 1    
   109   55  121 1    
   110   56  122 1    
   111   56  123 1    
   112   56  124 1    
   113   57   58 2    
   114   57   59 am   BACKBONE|DICT|INTERRES
   115   59   60 1    
   116   59  125 1    
   117   60   61 1    
   118   60   62 1    
   119   60  126 1    
   120   61  127 1    
   121   61  128 1    
   122   61  129 1    
   123   62   63 2    
   124   62   64 am   BACKBONE|DICT|INTERRES
   125   64   65 1    
   126   64  130 1    
   127   65   66 1    
   128   65   69 1    
   129   65  131 1    
   130   66   67 am   BACKBONE|DICT|INTERRES
   131   66   68 2    
   132   67  132 1    
   133   67  133 1    
   134   69   70 1    
   135   69  134 1    
   136   69  135 1    
   137   70   71 1    
   138   71  136 1    
   139   71  137 1    
@<TRIPOS>SUBSTRUCTURE
     1 UNK         1 GROUP             0       ****    0 ROOT    
