@<TRIPOS>MOLECULE
3R137
137   139    1
SMALL
USER_CHARGES


@<TRIPOS>ATOM
      1 CA         24.2840   -4.8952   -6.3233 C.3       0 UNK        -0.2020 
      2 C          24.3939   -4.2891   -4.9328 C.2       0 UNK         0.4855 
      3 O          24.4358   -3.0667   -4.8122 O.2       0 UNK        -0.5197 
      4 N          24.4101   -5.1418   -3.8955 N.am      1 UNK        -0.4892 
      5 CA         24.6121   -4.8571   -2.4605 C.3       1 UNK         0.0835 
      6 C6         26.1058   -4.8953   -2.0256 C.3       12 UNK        -0.0855 
      7 S7         27.2114   -3.6684   -2.8118 S.3       12 UNK        -0.2931 
      8 C8         28.4576   -4.7622   -3.5634 C.3       12 UNK         0.0378 
      9 C9         29.7057   -3.9923   -3.9660 C.ar      12 UNK        -0.0802 
     10 C10        30.0187   -3.7901   -5.3135 C.ar      12 UNK        -0.0944 
     11 C11        31.1827   -3.1033   -5.6743 C.ar      12 UNK        -0.0787 
     12 C12        32.0280   -2.6050   -4.6775 C.ar      12 UNK        -0.0862 
     13 C13        31.7076   -2.7732   -3.3272 C.ar      12 UNK        -0.0733 
     14 C14        30.5596   -3.4915   -2.9793 C.ar      12 UNK        -0.0832 
     15 C15        32.5736   -2.1435   -2.2446 C.3       12 UNK         0.0240 
     16 S16        31.6351   -0.9493   -1.2319 S.3       12 UNK        -0.2522 
     17 C17        31.2839    0.3975   -2.4188 C.3       12 UNK        -0.0967 
     18 CA         30.0154    0.1642   -3.2891 C.3       5 UNK         0.0660 
     19 N          28.8257   -0.2404   -2.5338 N.am      5 UNK        -0.4015 
     20 C          28.0993    0.5124   -1.6992 C.2       4 UNK         0.4946 
     21 O          28.3685    1.6745   -1.3876 O.2       4 UNK        -0.5353 
     22 CA         26.8191   -0.1514   -1.1590 C.3       4 UNK         0.0277 
     23 CB         26.5685    0.2206    0.3130 C.3       4 UNK        -0.1981 
     24 N          25.6175    0.1650   -1.9405 N.am      4 UNK        -0.4209 
     25 C          25.4585    0.0726   -3.2700 C.2       3 UNK         0.4942 
     26 O          26.3484   -0.2397   -4.0625 O.2       3 UNK        -0.5208 
     27 CA         24.0346    0.3209   -3.7833 C.3       3 UNK         0.0250 
     28 CB         23.9742    0.5053   -5.3102 C.3       3 UNK        -0.1990 
     29 N          23.2383   -0.8452   -3.4199 N.am      3 UNK        -0.4232 
     30 C          22.3664   -0.9013   -2.4055 C.2       2 UNK         0.4993 
     31 O          22.0544    0.0719   -1.7181 O.2       2 UNK        -0.5286 
     32 CA         21.7540   -2.2764   -2.0792 C.3       2 UNK         0.0209 
     33 CB         20.3954   -2.4401   -2.7797 C.3       2 UNK        -0.1931 
     34 N          22.6219   -3.4019   -2.4402 N.am      2 UNK        -0.4546 
     35 C          23.8063   -3.6719   -1.8708 C.2       1 UNK         0.5154 
     36 O          24.2442   -3.0419   -0.9059 O.2       1 UNK        -0.5181 
     37 C          29.7356    1.3185   -4.2786 C.2       5 UNK         0.5014 
     38 O          30.6076    2.1584   -4.5076 O.2       5 UNK        -0.5248 
     39 N          28.5327    1.3283   -4.8664 N.am      6 UNK        -0.4434 
     40 CA         28.0840    2.2982   -5.8656 C.3       6 UNK         0.0363 
     41 CB         27.3056    3.4245   -5.1597 C.3       6 UNK        -0.1936 
     42 C          27.2524    1.6235   -6.9716 C.2       6 UNK         0.5081 
     43 O          26.5319    2.3154   -7.6917 O.2       6 UNK        -0.5248 
     44 N          27.3444    0.2901   -7.0881 N.am      7 UNK        -0.4718 
     45 CA         26.5785   -0.5284   -8.0344 C.3       7 UNK         0.0273 
     46 CB         26.7155   -2.0067   -7.6353 C.3       7 UNK        -0.1935 
     47 C          26.9752   -0.3190   -9.5074 C.2       7 UNK         0.5018 
     48 O          26.1622   -0.5798  -10.3955 O.2       7 UNK        -0.5186 
     49 N          28.2019    0.1555   -9.7381 N.am      8 UNK        -0.4240 
     50 CA         28.7670    0.5236  -11.0289 C.3       8 UNK         0.0235 
     51 CB         29.3171   -0.7310  -11.7333 C.3       8 UNK        -0.2000 
     52 C          29.8825    1.5410  -10.7716 C.2       8 UNK         0.4941 
     53 O          30.3726    1.6349   -9.6431 O.2       8 UNK        -0.5273 
     54 N          30.3145    2.2464  -11.8260 N.am      9 UNK        -0.4262 
     55 CA         31.4338    3.1997  -11.7819 C.3       9 UNK         0.0264 
     56 CB         31.5610    3.9049  -13.1417 C.3       9 UNK        -0.1955 
     57 C          32.7760    2.5574  -11.3784 C.2       9 UNK         0.5031 
     58 O          33.6122    3.2250  -10.7683 O.2       9 UNK        -0.5390 
     59 N          32.9345    1.2625  -11.6866 N.am      10 UNK        -0.4204 
     60 CA         34.0644    0.4227  -11.2867 C.3       10 UNK         0.0237 
     61 CB         33.9872   -0.9095  -12.0512 C.3       10 UNK        -0.1985 
     62 C          34.1532    0.1631   -9.7698 C.2       10 UNK         0.4970 
     63 O          35.2292   -0.2120   -9.3020 O.2       10 UNK        -0.4914 
     64 N          33.0503    0.3518   -9.0298 N.am      11 UNK        -0.4285 
     65 CA         33.0035    0.1910   -7.5683 C.3       11 UNK         0.1007 
     66 C          33.6789    1.3471   -6.7751 C.2       11 UNK         0.5703 
     67 N          34.0040    2.4795   -7.3904 N.am      11 UNK        -0.7361 
     68 O          33.9342    1.2010   -5.5823 O.2       11 UNK        -0.4986 
     69 C69        31.5651   -0.0683   -7.0486 C.3       12 UNK        -0.0947 
     70 S70        30.7113   -1.4573   -7.8681 S.3       12 UNK        -0.2240 
     71 C71        31.5325   -2.9110   -7.1423 C.3       12 UNK         0.0194 
     72 H72        23.4510   -4.4464   -6.8637 H         1 UNK         0.0906 
     73 H73        25.1973   -4.7029   -6.8853 H         1 UNK         0.0906 
     74 H74        24.1256   -5.9729   -6.2903 H         1 UNK         0.0906 
     75 H75        24.3268   -6.1272   -4.1053 H         1 UNK         0.3140 
     76 H76        24.1534   -5.7143   -1.9644 H         1 UNK         0.1085 
     77 H77        26.1924   -4.7784   -0.9437 H         1 UNK         0.0836 
     78 H78        26.4926   -5.8954   -2.2249 H         1 UNK         0.0836 
     79 H79        28.7427   -5.5394   -2.8527 H         1 UNK         0.0731 
     80 H80        28.0154   -5.2706   -4.4217 H         1 UNK         0.0731 
     81 H81        29.3620   -4.1720   -6.0833 H         1 UNK         0.1312 
     82 H82        32.9205   -2.0605   -4.9546 H         1 UNK         0.1406 
     83 H83        30.3107   -3.6304   -1.9356 H         1 UNK         0.1631 
     84 H84        33.4436   -1.6445   -2.6743 H         1 UNK         0.0717 
     85 H85        32.9580   -2.9316   -1.5959 H         1 UNK         0.0717 
     86 H86        31.1763    1.3212   -1.8474 H         1 UNK         0.0934 
     87 H87        32.1609    0.5380   -3.0542 H         1 UNK         0.0934 
     88 H88        30.2165   -0.6807   -3.9426 H         1 UNK         0.0739 
     89 H89        28.4741   -1.1632   -2.7544 H         1 UNK         0.3093 
     90 H90        26.9520   -1.2336   -1.2002 H         1 UNK         0.0818 
     91 H91        25.7367   -0.3483    0.7293 H         1 UNK         0.0819 
     92 H92        27.4456    0.0037    0.9243 H         1 UNK         0.0819 
     93 H93        26.3439    1.2816    0.4299 H         1 UNK         0.0819 
     94 H94        24.8017    0.4129   -1.3989 H         1 UNK         0.3041 
     95 H95        23.6498    1.2286   -3.3135 H         1 UNK         0.0784 
     96 H96        22.9531    0.6835   -5.6468 H         1 UNK         0.0793 
     97 H97        24.5741    1.3594   -5.6245 H         1 UNK         0.0793 
     98 H98        24.3494   -0.3740   -5.8352 H         1 UNK         0.0793 
     99 H99        23.5123   -1.7115   -3.8823 H         1 UNK         0.3024 
    100 H100       21.5926   -2.3097   -0.9993 H         1 UNK         0.1171 
    101 H101       20.4976   -2.4326   -3.8657 H         1 UNK         0.0786 
    102 H102       19.7177   -1.6286   -2.5105 H         1 UNK         0.0786 
    103 H103       19.9101   -3.3733   -2.4931 H         1 UNK         0.0786 
    104 H104       22.3423   -3.9611   -3.2333 H         1 UNK         0.2977 
    105 H105       27.8329    0.6408   -4.5799 H         1 UNK         0.3127 
    106 H106       28.9499    2.7351   -6.3677 H         1 UNK         0.0770 
    107 H107       26.4085    3.0435   -4.6705 H         1 UNK         0.0814 
    108 H108       26.9939    4.1939   -5.8670 H         1 UNK         0.0814 
    109 H109       27.9178    3.9131   -4.4016 H         1 UNK         0.0814 
    110 H110       27.9604   -0.2068   -6.4617 H         1 UNK         0.2983 
    111 H111       25.5277   -0.2460   -7.9454 H         1 UNK         0.0947 
    112 H112       26.1134   -2.6432   -8.2847 H         1 UNK         0.0806 
    113 H113       26.3748   -2.1725   -6.6124 H         1 UNK         0.0806 
    114 H114       27.7478   -2.3512   -7.7047 H         1 UNK         0.0806 
    115 H115       28.8017    0.3757   -8.9514 H         1 UNK         0.3000 
    116 H116       27.9958    0.9945  -11.6423 H         1 UNK         0.0850 
    117 H117       30.1007   -1.2106  -11.1444 H         1 UNK         0.0810 
    118 H118       28.5313   -1.4677  -11.9014 H         1 UNK         0.0810 
    119 H119       29.7403   -0.4863  -12.7080 H         1 UNK         0.0810 
    120 H120       29.8625    2.1171  -12.7205 H         1 UNK         0.3040 
    121 H121       31.1960    3.9520  -11.0267 H         1 UNK         0.0766 
    122 H122       30.6482    4.4433  -13.3974 H         1 UNK         0.0812 
    123 H123       31.7731    3.1994  -13.9461 H         1 UNK         0.0812 
    124 H124       32.3714    4.6353  -13.1274 H         1 UNK         0.0812 
    125 H125       32.1921    0.8071  -12.1960 H         1 UNK         0.3205 
    126 H126       34.9821    0.9362  -11.5811 H         1 UNK         0.0754 
    127 H127       34.8354   -1.5506  -11.8063 H         1 UNK         0.0769 
    128 H128       34.0059   -0.7513  -13.1298 H         1 UNK         0.0769 
    129 H129       33.0796   -1.4633  -11.8067 H         1 UNK         0.0769 
    130 H130       32.1971    0.6922   -9.4582 H         1 UNK         0.2981 
    131 H131       33.5902   -0.6966   -7.3268 H         1 UNK         0.0541 
    132 H132       34.4480    3.2149   -6.8642 H         1 UNK         0.3459 
    133 H133       33.8105    2.6066   -8.3731 H         1 UNK         0.3459 
    134 H134       30.9517    0.8233   -7.1868 H         1 UNK         0.0612 
    135 H135       31.5758   -0.2518   -5.9755 H         1 UNK         0.0612 
    136 H136       32.6119   -2.8301   -7.2740 H         1 UNK         0.0624 
    137 H137       31.2286   -3.7942   -7.7060 H         1 UNK         0.0624 
@<TRIPOS>BOND
     1    1    2 1    
     2    1   72 1    
     3    1   73 1    
     4    1   74 1    
     5    2    3 2    
     6    2    4 am   BACKBONE|DICT|INTERRES
     7    4    5 1    
     8    4   75 1    
     9    5    6 1    
    10    5   35 1    
    11    5   76 1    
    12    6    7 1    
    13    6   77 1    
    14    6   78 1    
    15    7    8 1    
    16    8    9 1    
    17    8   79 1    
    18    8   80 1    
    19    9   10 ar   
    20    9   14 ar   
    21   10   11 ar   
    22   10   81 1    
    23   11   12 ar   
    24   11   71 1    
    25   12   13 ar   
    26   12   82 1    
    27   13   14 ar   
    28   13   15 1    
    29   14   83 1    
    30   15   16 1    
    31   15   84 1    
    32   15   85 1    
    33   16   17 1    
    34   17   18 1    
    35   17   86 1    
    36   17   87 1    
    37   18   19 1    
    38   18   37 1    
    39   18   88 1    
    40   19   20 am   BACKBONE|DICT|INTERRES
    41   19   89 1    
    42   20   21 2    
    43   20   22 1    
    44   22   23 1    
    45   22   24 1    
    46   22   90 1    
    47   23   91 1    
    48   23   92 1    
    49   23   93 1    
    50   24   25 am   BACKBONE|DICT|INTERRES
    51   24   94 1    
    52   25   26 2    
    53   25   27 1    
    54   27   28 1    
    55   27   29 1    
    56   27   95 1    
    57   28   96 1    
    58   28   97 1    
    59   28   98 1    
    60   29   30 am   BACKBONE|DICT|INTERRES
    61   29   99 1    
    62   30   31 2    
    63   30   32 1    
    64   32   33 1    
    65   32   34 1    
    66   32  100 1    
    67   33  101 1    
    68   33  102 1    
    69   33  103 1    
    70   34   35 am   BACKBONE|DICT|INTERRES
    71   34  104 1    
    72   35   36 2    
    73   37   38 2    
    74   37   39 am   BACKBONE|DICT|INTERRES
    75   39   40 1    
    76   39  105 1    
    77   40   41 1    
    78   40   42 1    
    79   40  106 1    
    80   41  107 1    
    81   41  108 1    
    82   41  109 1    
    83   42   43 2    
    84   42   44 am   BACKBONE|DICT|INTERRES
    85   44   45 1    
    86   44  110 1    
    87   45   46 1    
    88   45   47 1    
    89   45  111 1    
    90   46  112 1    
    91   46  113 1    
    92   46  114 1    
    93   47   48 2    
    94   47   49 am   BACKBONE|DICT|INTERRES
    95   49   50 1    
    96   49  115 1    
    97   50   51 1    
    98   50   52 1    
    99   50  116 1    
   100   51  117 1    
   101   51  118 1    
   102   51  119 1    
   103   52   53 2    
   104   52   54 am   BACKBONE|DICT|INTERRES
   105   54   55 1    
   106   54  120 1    
   107   55   56 1    
   108   55   57 1    
   109   55  121 1    
   110   56  122 1    
   111   56  123 1    
   112   56  124 1    
   113   57   58 2    
   114   57   59 am   BACKBONE|DICT|INTERRES
   115   59   60 1    
   116   59  125 1    
   117   60   61 1    
   118   60   62 1    
   119   60  126 1    
   120   61  127 1    
   121   61  128 1    
   122   61  129 1    
   123   62   63 2    
   124   62   64 am   BACKBONE|DICT|INTERRES
   125   64   65 1    
   126   64  130 1    
   127   65   66 1    
   128   65   69 1    
   129   65  131 1    
   130   66   67 am   BACKBONE|DICT|INTERRES
   131   66   68 2    
   132   67  132 1    
   133   67  133 1    
   134   69   70 1    
   135   69  134 1    
   136   69  135 1    
   137   70   71 1    
   138   71  136 1    
   139   71  137 1    
@<TRIPOS>SUBSTRUCTURE
     1 UNK         1 GROUP             0       ****    0 ROOT    
