@<TRIPOS>MOLECULE
3R137
137   139    1
SMALL
USER_CHARGES


@<TRIPOS>ATOM
      1 CA         29.3477   -0.3201   -4.2394 C.3       0 UNK        -0.2020 
      2 C          28.9175   -0.5232   -2.7967 C.2       0 UNK         0.4855 
      3 O          28.7877    0.4465   -2.0504 O.2       0 UNK        -0.5197 
      4 N          28.6751   -1.7837   -2.4159 N.am      1 UNK        -0.4892 
      5 CA         28.1719   -2.2255   -1.1089 C.3       1 UNK         0.0835 
      6 C6         29.2384   -2.1067    0.0211 C.3       12 UNK        -0.0855 
      7 S7         29.5427   -3.7256    0.8102 S.3       12 UNK        -0.2931 
      8 C8         31.0386   -4.3128   -0.0652 C.3       12 UNK         0.0378 
      9 C9         30.8907   -4.3530   -1.5856 C.ar      12 UNK        -0.0802 
     10 C10        31.8577   -3.7482   -2.3963 C.ar      12 UNK        -0.0944 
     11 C11        31.7354   -3.7693   -3.7891 C.ar      12 UNK        -0.0787 
     12 C12        30.6205   -4.3766   -4.3729 C.ar      12 UNK        -0.0862 
     13 C13        29.6416   -4.9781   -3.5762 C.ar      12 UNK        -0.0733 
     14 C14        29.8019   -4.9954   -2.1869 C.ar      12 UNK        -0.0832 
     15 C15        28.4088   -5.6079   -4.2108 C.3       12 UNK         0.0240 
     16 S16        26.9515   -4.5189   -4.0783 S.3       12 UNK        -0.2522 
     17 C17        27.3207   -3.2174   -5.3047 C.3       12 UNK        -0.0967 
     18 CA         26.3988   -3.2688   -6.5511 C.3       5 UNK         0.0660 
     19 N          24.9894   -3.1274   -6.1775 N.am      5 UNK        -0.4015 
     20 C          23.9577   -3.6977   -6.8135 C.2       4 UNK         0.4946 
     21 O          24.0860   -4.4644   -7.7700 O.2       4 UNK        -0.5353 
     22 CA         22.5371   -3.3908   -6.2955 C.3       4 UNK         0.0277 
     23 CB         21.9976   -4.5811   -5.4846 C.3       4 UNK        -0.1981 
     24 N          22.4627   -2.1836   -5.4688 N.am      4 UNK        -0.4209 
     25 C          22.4950   -0.9276   -5.9371 C.2       3 UNK         0.4942 
     26 O          22.4700   -0.6467   -7.1355 O.2       3 UNK        -0.5208 
     27 CA         22.5751    0.2143   -4.9002 C.3       3 UNK         0.0250 
     28 CB         21.2072    0.9010   -4.7524 C.3       3 UNK        -0.1990 
     29 N          23.0596   -0.1808   -3.5682 N.am      3 UNK        -0.4232 
     30 C          24.2592   -0.7217   -3.3169 C.2       2 UNK         0.4993 
     31 O          25.0820   -0.9826   -4.1994 O.2       2 UNK        -0.5286 
     32 CA         24.5741   -1.0808   -1.8576 C.3       2 UNK         0.0209 
     33 CB         23.6064   -2.1508   -1.3143 C.3       2 UNK        -0.1931 
     34 N          25.9377   -1.5920   -1.8267 N.am      2 UNK        -0.4546 
     35 C          26.7707   -1.6568   -0.7838 C.2       1 UNK         0.5154 
     36 O          26.4668   -1.3070    0.3583 O.2       1 UNK        -0.5181 
     37 C          26.7832   -2.1658   -7.5613 C.2       5 UNK         0.5014 
     38 O          25.9692   -1.2944   -7.8805 O.2       5 UNK        -0.5248 
     39 N          28.0440   -2.1835   -8.0187 N.am      6 UNK        -0.4434 
     40 CA         28.6592   -1.1819   -8.9002 C.3       6 UNK         0.0363 
     41 CB         29.9365   -1.7854   -9.5136 C.3       6 UNK        -0.1936 
     42 C          28.9297    0.1679   -8.1959 C.2       6 UNK         0.5081 
     43 O          30.0504    0.6803   -8.2407 O.2       6 UNK        -0.5248 
     44 N          27.8954    0.7255   -7.5545 N.am      7 UNK        -0.4718 
     45 CA         27.9216    1.9864   -6.8097 C.3       7 UNK         0.0273 
     46 CB         26.6130    2.1362   -6.0159 C.3       7 UNK        -0.1935 
     47 C          28.1615    3.2084   -7.7059 C.2       7 UNK         0.5018 
     48 O          28.8790    4.1205   -7.2977 O.2       7 UNK        -0.5186 
     49 N          27.6142    3.1790   -8.9298 N.am      8 UNK        -0.4240 
     50 CA         27.8070    4.2094   -9.9569 C.3       8 UNK         0.0235 
     51 CB         26.8651    3.9314  -11.1395 C.3       8 UNK        -0.2000 
     52 C          29.2639    4.3242  -10.4433 C.2       8 UNK         0.4941 
     53 O          29.6867    5.4141  -10.8297 O.2       8 UNK        -0.5273 
     54 N          30.0033    3.2080  -10.3952 N.am      9 UNK        -0.4262 
     55 CA         31.4315    3.1321  -10.7052 C.3       9 UNK         0.0264 
     56 CB         31.7037    1.8000  -11.4256 C.3       9 UNK        -0.1955 
     57 C          32.3137    3.2412   -9.4480 C.2       9 UNK         0.5031 
     58 O          33.5373    3.2308   -9.5876 O.2       9 UNK        -0.5390 
     59 N          31.7027    3.2865   -8.2522 N.am      10 UNK        -0.4204 
     60 CA         32.3306    3.2299   -6.9253 C.3       10 UNK         0.0237 
     61 CB         33.0381    4.5646   -6.6097 C.3       10 UNK        -0.1985 
     62 C          33.2500    2.0015   -6.7562 C.2       10 UNK         0.4970 
     63 O          34.3730    2.1393   -6.2680 O.2       10 UNK        -0.4914 
     64 N          32.7645    0.8372   -7.2121 N.am      11 UNK        -0.4285 
     65 CA         33.5015   -0.4352   -7.3293 C.3       11 UNK         0.1007 
     66 C          34.6129   -0.4520   -8.4253 C.2       11 UNK         0.5703 
     67 N          34.7798    0.5776   -9.2472 N.am      11 UNK        -0.7361 
     68 O          35.3219   -1.4460   -8.5655 O.2       11 UNK        -0.4986 
     69 C69        34.0148   -0.9920   -5.9668 C.3       12 UNK        -0.0947 
     70 S70        32.6663   -1.3581   -4.7960 S.3       12 UNK        -0.2240 
     71 C71        32.8228   -3.1644   -4.6641 C.3       12 UNK         0.0194 
     72 H72        30.1131    0.4526   -4.3090 H         1 UNK         0.0906 
     73 H73        29.7484   -1.2347   -4.6744 H         1 UNK         0.0906 
     74 H74        28.4892   -0.0149   -4.8328 H         1 UNK         0.0906 
     75 H75        28.8528   -2.5372   -3.0663 H         1 UNK         0.3140 
     76 H76        27.9529   -3.2818   -1.2612 H         1 UNK         0.1085 
     77 H77        28.9534   -1.3868    0.7896 H         1 UNK         0.0836 
     78 H78        30.1859   -1.7334   -0.3713 H         1 UNK         0.0836 
     79 H79        31.2814   -5.3154    0.2891 H         1 UNK         0.0731 
     80 H80        31.8765   -3.6757    0.2226 H         1 UNK         0.0731 
     81 H81        32.7143   -3.2647   -1.9465 H         1 UNK         0.1312 
     82 H82        30.5209   -4.3867   -5.4496 H         1 UNK         0.1406 
     83 H83        29.0549   -5.4747   -1.5682 H         1 UNK         0.1631 
     84 H84        28.1873   -6.5523   -3.7115 H         1 UNK         0.0717 
     85 H85        28.5889   -5.8535   -5.2586 H         1 UNK         0.0717 
     86 H86        27.2230   -2.2518   -4.8106 H         1 UNK         0.0934 
     87 H87        28.3675   -3.2965   -5.5937 H         1 UNK         0.0934 
     88 H88        26.5455   -4.2309   -7.0465 H         1 UNK         0.0739 
     89 H89        24.8069   -2.4401   -5.4530 H         1 UNK         0.3093 
     90 H90        21.8950   -3.2524   -7.1681 H         1 UNK         0.0818 
     91 H91        22.6003   -4.7708   -4.5952 H         1 UNK         0.0819 
     92 H92        20.9690   -4.4118   -5.1656 H         1 UNK         0.0819 
     93 H93        22.0031   -5.4943   -6.0816 H         1 UNK         0.0819 
     94 H94        22.4616   -2.3165   -4.4685 H         1 UNK         0.3041 
     95 H95        23.2828    0.9461   -5.2960 H         1 UNK         0.0784 
     96 H96        20.8317    1.2379   -5.7198 H         1 UNK         0.0793 
     97 H97        20.4608    0.2266   -4.3305 H         1 UNK         0.0793 
     98 H98        21.2700    1.7795   -4.1098 H         1 UNK         0.0793 
     99 H99        22.4333   -0.0072   -2.7948 H         1 UNK         0.3024 
    100 H100       24.5145   -0.1723   -1.2542 H         1 UNK         0.1171 
    101 H101       23.6325   -3.0597   -1.9172 H         1 UNK         0.0786 
    102 H102       22.5769   -1.7916   -1.3036 H         1 UNK         0.0786 
    103 H103       23.8557   -2.4265   -0.2894 H         1 UNK         0.0786 
    104 H104       26.2896   -1.8315   -2.7460 H         1 UNK         0.2977 
    105 H105       28.6545   -2.9284   -7.7171 H         1 UNK         0.3127 
    106 H106       27.9647   -0.9758   -9.7173 H         1 UNK         0.0770 
    107 H107       30.6845   -2.0069   -8.7518 H         1 UNK         0.0814 
    108 H108       30.3912   -1.0994  -10.2285 H         1 UNK         0.0814 
    109 H109       29.7213   -2.7084  -10.0522 H         1 UNK         0.0814 
    110 H110       27.0139    0.2158   -7.5776 H         1 UNK         0.2983 
    111 H111       28.7528    1.9443   -6.1033 H         1 UNK         0.0947 
    112 H112       25.7431    2.1726   -6.6728 H         1 UNK         0.0806 
    113 H113       26.6167    3.0540   -5.4262 H         1 UNK         0.0806 
    114 H114       26.4685    1.3076   -5.3220 H         1 UNK         0.0806 
    115 H115       27.0401    2.3852   -9.1757 H         1 UNK         0.3000 
    116 H116       27.5333    5.1716   -9.5183 H         1 UNK         0.0850 
    117 H117       26.9692    4.6978  -11.9090 H         1 UNK         0.0810 
    118 H118       25.8212    3.9319  -10.8249 H         1 UNK         0.0810 
    119 H119       27.0756    2.9691  -11.6080 H         1 UNK         0.0810 
    120 H120       29.5753    2.3594  -10.0514 H         1 UNK         0.3040 
    121 H121       31.7122    3.9473  -11.3754 H         1 UNK         0.0766 
    122 H122       31.0889    1.6970  -12.3198 H         1 UNK         0.0812 
    123 H123       31.5051    0.9456  -10.7782 H         1 UNK         0.0812 
    124 H124       32.7457    1.7311  -11.7413 H         1 UNK         0.0812 
    125 H125       30.6909    3.3088   -8.2420 H         1 UNK         0.3205 
    126 H126       31.5195    3.1050   -6.2062 H         1 UNK         0.0754 
    127 H127       33.4211    4.5734   -5.5885 H         1 UNK         0.0769 
    128 H128       32.3526    5.4068   -6.7050 H         1 UNK         0.0769 
    129 H129       33.8823    4.7420   -7.2769 H         1 UNK         0.0769 
    130 H130       31.8252    0.8280   -7.6038 H         1 UNK         0.2981 
    131 H131       32.7618   -1.1443   -7.7010 H         1 UNK         0.0541 
    132 H132       34.2359    1.4289   -9.1589 H         1 UNK         0.3459 
    133 H133       35.4983    0.5220   -9.9507 H         1 UNK         0.3459 
    134 H134       34.5905   -1.9063   -6.1187 H         1 UNK         0.0612 
    135 H135       34.7046   -0.2946   -5.4913 H         1 UNK         0.0612 
    136 H136       33.8027   -3.4107   -4.2522 H         1 UNK         0.0624 
    137 H137       32.7895   -3.6004   -5.6640 H         1 UNK         0.0624 
@<TRIPOS>BOND
     1    1    2 1    
     2    1   72 1    
     3    1   73 1    
     4    1   74 1    
     5    2    3 2    
     6    2    4 am   BACKBONE|DICT|INTERRES
     7    4    5 1    
     8    4   75 1    
     9    5    6 1    
    10    5   35 1    
    11    5   76 1    
    12    6    7 1    
    13    6   77 1    
    14    6   78 1    
    15    7    8 1    
    16    8    9 1    
    17    8   79 1    
    18    8   80 1    
    19    9   10 ar   
    20    9   14 ar   
    21   10   11 ar   
    22   10   81 1    
    23   11   12 ar   
    24   11   71 1    
    25   12   13 ar   
    26   12   82 1    
    27   13   14 ar   
    28   13   15 1    
    29   14   83 1    
    30   15   16 1    
    31   15   84 1    
    32   15   85 1    
    33   16   17 1    
    34   17   18 1    
    35   17   86 1    
    36   17   87 1    
    37   18   19 1    
    38   18   37 1    
    39   18   88 1    
    40   19   20 am   BACKBONE|DICT|INTERRES
    41   19   89 1    
    42   20   21 2    
    43   20   22 1    
    44   22   23 1    
    45   22   24 1    
    46   22   90 1    
    47   23   91 1    
    48   23   92 1    
    49   23   93 1    
    50   24   25 am   BACKBONE|DICT|INTERRES
    51   24   94 1    
    52   25   26 2    
    53   25   27 1    
    54   27   28 1    
    55   27   29 1    
    56   27   95 1    
    57   28   96 1    
    58   28   97 1    
    59   28   98 1    
    60   29   30 am   BACKBONE|DICT|INTERRES
    61   29   99 1    
    62   30   31 2    
    63   30   32 1    
    64   32   33 1    
    65   32   34 1    
    66   32  100 1    
    67   33  101 1    
    68   33  102 1    
    69   33  103 1    
    70   34   35 am   BACKBONE|DICT|INTERRES
    71   34  104 1    
    72   35   36 2    
    73   37   38 2    
    74   37   39 am   BACKBONE|DICT|INTERRES
    75   39   40 1    
    76   39  105 1    
    77   40   41 1    
    78   40   42 1    
    79   40  106 1    
    80   41  107 1    
    81   41  108 1    
    82   41  109 1    
    83   42   43 2    
    84   42   44 am   BACKBONE|DICT|INTERRES
    85   44   45 1    
    86   44  110 1    
    87   45   46 1    
    88   45   47 1    
    89   45  111 1    
    90   46  112 1    
    91   46  113 1    
    92   46  114 1    
    93   47   48 2    
    94   47   49 am   BACKBONE|DICT|INTERRES
    95   49   50 1    
    96   49  115 1    
    97   50   51 1    
    98   50   52 1    
    99   50  116 1    
   100   51  117 1    
   101   51  118 1    
   102   51  119 1    
   103   52   53 2    
   104   52   54 am   BACKBONE|DICT|INTERRES
   105   54   55 1    
   106   54  120 1    
   107   55   56 1    
   108   55   57 1    
   109   55  121 1    
   110   56  122 1    
   111   56  123 1    
   112   56  124 1    
   113   57   58 2    
   114   57   59 am   BACKBONE|DICT|INTERRES
   115   59   60 1    
   116   59  125 1    
   117   60   61 1    
   118   60   62 1    
   119   60  126 1    
   120   61  127 1    
   121   61  128 1    
   122   61  129 1    
   123   62   63 2    
   124   62   64 am   BACKBONE|DICT|INTERRES
   125   64   65 1    
   126   64  130 1    
   127   65   66 1    
   128   65   69 1    
   129   65  131 1    
   130   66   67 am   BACKBONE|DICT|INTERRES
   131   66   68 2    
   132   67  132 1    
   133   67  133 1    
   134   69   70 1    
   135   69  134 1    
   136   69  135 1    
   137   70   71 1    
   138   71  136 1    
   139   71  137 1    
@<TRIPOS>SUBSTRUCTURE
     1 UNK         1 GROUP             0       ****    0 ROOT    
