@<TRIPOS>MOLECULE
3R137
137   139    1
SMALL
USER_CHARGES


@<TRIPOS>ATOM
      1 CA         27.1903   -4.4644    0.9361 C.3       0 UNK        -0.2020 
      2 C          27.0538   -2.9848    1.2620 C.2       0 UNK         0.4855 
      3 O          26.2790   -2.6198    2.1462 O.2       0 UNK        -0.5197 
      4 N          27.8012   -2.1301    0.5523 N.am      1 UNK        -0.4892 
      5 CA         27.7701   -0.6672    0.6880 C.3       1 UNK         0.0835 
      6 C6         29.0829   -0.0142    0.1802 C.3       12 UNK        -0.0855 
      7 S7         29.4719   -0.3781   -1.5668 S.3       12 UNK        -0.2931 
      8 C8         30.6635   -1.7420   -1.4029 C.3       12 UNK         0.0378 
      9 C9         30.8284   -2.4784   -2.7230 C.ar      12 UNK        -0.0802 
     10 C10        32.0059   -2.3479   -3.4648 C.ar      12 UNK        -0.0944 
     11 C11        32.1672   -3.0336   -4.6766 C.ar      12 UNK        -0.0787 
     12 C12        31.1350   -3.8625   -5.1295 C.ar      12 UNK        -0.0862 
     13 C13        29.9533   -4.0029   -4.3962 C.ar      12 UNK        -0.0733 
     14 C14        29.8054   -3.3066   -3.1945 C.ar      12 UNK        -0.0832 
     15 C15        28.8475   -4.9312   -4.8784 C.3       12 UNK         0.0240 
     16 S16        27.4549   -4.0199   -5.6135 S.3       12 UNK        -0.2522 
     17 C17        28.1355   -3.5595   -7.2465 C.3       12 UNK        -0.0967 
     18 CA         27.5430   -2.2510   -7.8242 C.3       5 UNK         0.0660 
     19 N          26.0780   -2.2760   -7.8587 N.am      5 UNK        -0.4015 
     20 C          25.3157   -1.3994   -8.5235 C.2       4 UNK         0.4946 
     21 O          25.7659   -0.4807   -9.2053 O.2       4 UNK        -0.5353 
     22 CA         23.7930   -1.5447   -8.3810 C.3       4 UNK         0.0277 
     23 CB         23.2506   -2.5352   -9.4236 C.3       4 UNK        -0.1981 
     24 N          23.3347   -1.9389   -7.0443 N.am      4 UNK        -0.4209 
     25 C          23.5984   -1.2899   -5.9007 C.2       3 UNK         0.4942 
     26 O          24.3540   -0.3173   -5.8258 O.2       3 UNK        -0.5208 
     27 CA         22.8420   -1.7910   -4.6559 C.3       3 UNK         0.0250 
     28 CB         22.8692   -3.3308   -4.5107 C.3       3 UNK        -0.1990 
     29 N          23.2647   -1.1169   -3.4206 N.am      3 UNK        -0.4232 
     30 C          24.3948   -1.3033   -2.7238 C.2       2 UNK         0.4993 
     31 O          25.2639   -2.1328   -3.0067 O.2       2 UNK        -0.5286 
     32 CA         24.5704   -0.4176   -1.4795 C.3       2 UNK         0.0209 
     33 CB         23.4027   -0.5894   -0.4839 C.3       2 UNK        -0.1931 
     34 N          25.8271   -0.7714   -0.8269 N.am      2 UNK        -0.4546 
     35 C          26.5072   -0.0325    0.0581 C.2       1 UNK         0.5154 
     36 O          26.1631    1.0991    0.4042 O.2       1 UNK        -0.5181 
     37 C          28.1069   -0.9950   -7.1266 C.2       5 UNK         0.5014 
     38 O          29.1277   -0.4682   -7.5750 O.2       5 UNK        -0.5248 
     39 N          27.4205   -0.5151   -6.0796 N.am      6 UNK        -0.4434 
     40 CA         27.7501    0.7269   -5.3831 C.3       6 UNK         0.0363 
     41 CB         27.0756    0.7445   -4.0043 C.3       6 UNK        -0.1936 
     42 C          27.3231    1.9518   -6.2022 C.2       6 UNK         0.5081 
     43 O          28.0873    2.9114   -6.2920 O.2       6 UNK        -0.5248 
     44 N          26.1244    1.8883   -6.8018 N.am      7 UNK        -0.4718 
     45 CA         25.5537    2.9431   -7.6456 C.3       7 UNK         0.0273 
     46 CB         24.0938    2.6019   -7.9817 C.3       7 UNK        -0.1935 
     47 C          26.3663    3.1954   -8.9272 C.2       7 UNK         0.5018 
     48 O          26.6020    4.3527   -9.2759 O.2       7 UNK        -0.5186 
     49 N          26.8039    2.1134   -9.5861 N.am      8 UNK        -0.4240 
     50 CA         27.6913    2.1514  -10.7517 C.3       8 UNK         0.0235 
     51 CB         27.5889    0.8144  -11.5047 C.3       8 UNK        -0.2000 
     52 C          29.1598    2.4397  -10.3905 C.2       8 UNK         0.4941 
     53 O          29.9292    2.7856  -11.2876 O.2       8 UNK        -0.5273 
     54 N          29.5199    2.2740   -9.1073 N.am      9 UNK        -0.4262 
     55 CA         30.8638    2.3721   -8.5290 C.3       9 UNK         0.0264 
     56 CB         31.3845    3.8238   -8.5809 C.3       9 UNK        -0.1955 
     57 C          31.8264    1.3568   -9.1698 C.2       9 UNK         0.5031 
     58 O          32.8613    1.7422   -9.7182 O.2       9 UNK        -0.5390 
     59 N          31.4540    0.0706   -9.0893 N.am      10 UNK        -0.4204 
     60 CA         32.1175   -1.0743   -9.7313 C.3       10 UNK         0.0237 
     61 CB         31.3425   -2.3554   -9.3797 C.3       10 UNK        -0.1985 
     62 C          33.6148   -1.2507   -9.4070 C.2       10 UNK         0.4970 
     63 O          34.3344   -1.8515  -10.2059 O.2       10 UNK        -0.4914 
     64 N          34.0480   -0.7236   -8.2595 N.am      11 UNK        -0.4285 
     65 CA         35.4386   -0.6755   -7.7875 C.3       11 UNK         0.1007 
     66 C          35.9352    0.7772   -7.5250 C.2       11 UNK         0.5703 
     67 N          35.2550    1.8107   -8.0105 N.am      11 UNK        -0.7361 
     68 O          36.9698    0.9781   -6.8929 O.2       11 UNK        -0.4986 
     69 C69        35.6706   -1.6439   -6.5936 C.3       12 UNK        -0.0947 
     70 S70        34.4574   -1.4503   -5.2412 S.3       12 UNK        -0.2240 
     71 C71        33.4466   -2.9472   -5.5084 C.3       12 UNK         0.0194 
     72 H72        26.2313   -4.8658    0.6091 H         1 UNK         0.0906 
     73 H73        27.9198   -4.6446    0.1466 H         1 UNK         0.0906 
     74 H74        27.5063   -5.0158    1.8212 H         1 UNK         0.0906 
     75 H75        28.4122   -2.4796   -0.1704 H         1 UNK         0.3140 
     76 H76        27.7022   -0.4435    1.7554 H         1 UNK         0.1085 
     77 H77        29.0365    1.0700    0.3003 H         1 UNK         0.0836 
     78 H78        29.9176   -0.3354    0.8056 H         1 UNK         0.0836 
     79 H79        30.3333   -2.4473   -0.6401 H         1 UNK         0.0731 
     80 H80        31.6178   -1.3415   -1.0567 H         1 UNK         0.0731 
     81 H81        32.7962   -1.7159   -3.0858 H         1 UNK         0.1312 
     82 H82        31.2570   -4.4105   -6.0540 H         1 UNK         0.1406 
     83 H83        28.8896   -3.4090   -2.6286 H         1 UNK         0.1631 
     84 H84        28.4751   -5.5139   -4.0346 H         1 UNK         0.0717 
     85 H85        29.2309   -5.6549   -5.5995 H         1 UNK         0.0717 
     86 H86        29.2225   -3.4886   -7.1931 H         1 UNK         0.0934 
     87 H87        27.9324   -4.3831   -7.9328 H         1 UNK         0.0934 
     88 H88        27.8737   -2.1859   -8.8632 H         1 UNK         0.0739 
     89 H89        25.6314   -2.9889   -7.3004 H         1 UNK         0.3093 
     90 H90        23.3561   -0.5669   -8.5900 H         1 UNK         0.0818 
     91 H91        22.1607   -2.5580   -9.4220 H         1 UNK         0.0819 
     92 H92        23.5634   -2.2523  -10.4300 H         1 UNK         0.0819 
     93 H93        23.6091   -3.5497   -9.2445 H         1 UNK         0.0819 
     94 H94        22.6986   -2.7223   -7.0070 H         1 UNK         0.3041 
     95 H95        21.8016   -1.4962   -4.8009 H         1 UNK         0.0784 
     96 H96        22.3027   -3.8180   -5.3046 H         1 UNK         0.0793 
     97 H97        23.8851   -3.7265   -4.5478 H         1 UNK         0.0793 
     98 H98        22.4239   -3.6470   -3.5673 H         1 UNK         0.0793 
     99 H99        22.6423   -0.3840   -3.1108 H         1 UNK         0.3024 
    100 H100       24.6254    0.6219   -1.8107 H         1 UNK         0.1171 
    101 H101       23.5426    0.0239    0.4063 H         1 UNK         0.0786 
    102 H102       22.4505   -0.2913   -0.9233 H         1 UNK         0.0786 
    103 H103       23.3044   -1.6262   -0.1593 H         1 UNK         0.0786 
    104 H104       26.2066   -1.6620   -1.1239 H         1 UNK         0.2977 
    105 H105       26.5664   -0.9791   -5.7977 H         1 UNK         0.3127 
    106 H106       28.8319    0.7641   -5.2353 H         1 UNK         0.0770 
    107 H107       25.9949    0.8624   -4.0809 H         1 UNK         0.0814 
    108 H108       27.4507    1.5699   -3.3983 H         1 UNK         0.0814 
    109 H109       27.2709   -0.1775   -3.4580 H         1 UNK         0.0814 
    110 H110       25.5472    1.0686   -6.6348 H         1 UNK         0.2983 
    111 H111       25.5618    3.8674   -7.0638 H         1 UNK         0.0947 
    112 H112       23.6243    3.4118   -8.5416 H         1 UNK         0.0806 
    113 H113       23.5030    2.4451   -7.0789 H         1 UNK         0.0806 
    114 H114       24.0211    1.7015   -8.5910 H         1 UNK         0.0806 
    115 H115       26.5002    1.1903   -9.2768 H         1 UNK         0.3000 
    116 H116       27.3537    2.9475  -11.4187 H         1 UNK         0.0850 
    117 H117       28.1959    0.8270  -12.4110 H         1 UNK         0.0810 
    118 H118       26.5620    0.6050  -11.8046 H         1 UNK         0.0810 
    119 H119       27.9348   -0.0192  -10.8915 H         1 UNK         0.0810 
    120 H120       28.7985    1.9856   -8.4601 H         1 UNK         0.3040 
    121 H121       30.7680    2.0934   -7.4781 H         1 UNK         0.0766 
    122 H122       31.5304    4.1690   -9.6049 H         1 UNK         0.0812 
    123 H123       32.3440    3.9108   -8.0697 H         1 UNK         0.0812 
    124 H124       30.6920    4.5085   -8.0912 H         1 UNK         0.0812 
    125 H125       30.5924   -0.1368   -8.5821 H         1 UNK         0.3205 
    126 H126       32.0460   -0.9169  -10.8092 H         1 UNK         0.0754 
    127 H127       31.7961   -3.2318   -9.8449 H         1 UNK         0.0769 
    128 H128       30.3115   -2.3025   -9.7296 H         1 UNK         0.0769 
    129 H129       31.3229   -2.5284   -8.3030 H         1 UNK         0.0769 
    130 H130       33.3815   -0.2478   -7.6700 H         1 UNK         0.2981 
    131 H131       36.0903   -1.0183   -8.5927 H         1 UNK         0.0541 
    132 H132       34.4436    1.6770   -8.6066 H         1 UNK         0.3459 
    133 H133       35.5984    2.7419   -7.8387 H         1 UNK         0.3459 
    134 H134       36.6734   -1.5275   -6.1796 H         1 UNK         0.0612 
    135 H135       35.6342   -2.6714   -6.9583 H         1 UNK         0.0612 
    136 H136       33.1871   -2.9959   -6.5671 H         1 UNK         0.0624 
    137 H137       34.0588   -3.8245   -5.2958 H         1 UNK         0.0624 
@<TRIPOS>BOND
     1    1    2 1    
     2    1   72 1    
     3    1   73 1    
     4    1   74 1    
     5    2    3 2    
     6    2    4 am   BACKBONE|DICT|INTERRES
     7    4    5 1    
     8    4   75 1    
     9    5    6 1    
    10    5   35 1    
    11    5   76 1    
    12    6    7 1    
    13    6   77 1    
    14    6   78 1    
    15    7    8 1    
    16    8    9 1    
    17    8   79 1    
    18    8   80 1    
    19    9   10 ar   
    20    9   14 ar   
    21   10   11 ar   
    22   10   81 1    
    23   11   12 ar   
    24   11   71 1    
    25   12   13 ar   
    26   12   82 1    
    27   13   14 ar   
    28   13   15 1    
    29   14   83 1    
    30   15   16 1    
    31   15   84 1    
    32   15   85 1    
    33   16   17 1    
    34   17   18 1    
    35   17   86 1    
    36   17   87 1    
    37   18   19 1    
    38   18   37 1    
    39   18   88 1    
    40   19   20 am   BACKBONE|DICT|INTERRES
    41   19   89 1    
    42   20   21 2    
    43   20   22 1    
    44   22   23 1    
    45   22   24 1    
    46   22   90 1    
    47   23   91 1    
    48   23   92 1    
    49   23   93 1    
    50   24   25 am   BACKBONE|DICT|INTERRES
    51   24   94 1    
    52   25   26 2    
    53   25   27 1    
    54   27   28 1    
    55   27   29 1    
    56   27   95 1    
    57   28   96 1    
    58   28   97 1    
    59   28   98 1    
    60   29   30 am   BACKBONE|DICT|INTERRES
    61   29   99 1    
    62   30   31 2    
    63   30   32 1    
    64   32   33 1    
    65   32   34 1    
    66   32  100 1    
    67   33  101 1    
    68   33  102 1    
    69   33  103 1    
    70   34   35 am   BACKBONE|DICT|INTERRES
    71   34  104 1    
    72   35   36 2    
    73   37   38 2    
    74   37   39 am   BACKBONE|DICT|INTERRES
    75   39   40 1    
    76   39  105 1    
    77   40   41 1    
    78   40   42 1    
    79   40  106 1    
    80   41  107 1    
    81   41  108 1    
    82   41  109 1    
    83   42   43 2    
    84   42   44 am   BACKBONE|DICT|INTERRES
    85   44   45 1    
    86   44  110 1    
    87   45   46 1    
    88   45   47 1    
    89   45  111 1    
    90   46  112 1    
    91   46  113 1    
    92   46  114 1    
    93   47   48 2    
    94   47   49 am   BACKBONE|DICT|INTERRES
    95   49   50 1    
    96   49  115 1    
    97   50   51 1    
    98   50   52 1    
    99   50  116 1    
   100   51  117 1    
   101   51  118 1    
   102   51  119 1    
   103   52   53 2    
   104   52   54 am   BACKBONE|DICT|INTERRES
   105   54   55 1    
   106   54  120 1    
   107   55   56 1    
   108   55   57 1    
   109   55  121 1    
   110   56  122 1    
   111   56  123 1    
   112   56  124 1    
   113   57   58 2    
   114   57   59 am   BACKBONE|DICT|INTERRES
   115   59   60 1    
   116   59  125 1    
   117   60   61 1    
   118   60   62 1    
   119   60  126 1    
   120   61  127 1    
   121   61  128 1    
   122   61  129 1    
   123   62   63 2    
   124   62   64 am   BACKBONE|DICT|INTERRES
   125   64   65 1    
   126   64  130 1    
   127   65   66 1    
   128   65   69 1    
   129   65  131 1    
   130   66   67 am   BACKBONE|DICT|INTERRES
   131   66   68 2    
   132   67  132 1    
   133   67  133 1    
   134   69   70 1    
   135   69  134 1    
   136   69  135 1    
   137   70   71 1    
   138   71  136 1    
   139   71  137 1    
@<TRIPOS>SUBSTRUCTURE
     1 UNK         1 GROUP             0       ****    0 ROOT    
