@<TRIPOS>MOLECULE
3R137
137   139    1
SMALL
USER_CHARGES


@<TRIPOS>ATOM
      1 CA         29.2675   -6.1611   -3.0383 C.3       0 UNK        -0.2020 
      2 C          28.6180   -5.4783   -1.8444 C.2       0 UNK         0.4855 
      3 O          27.9088   -6.1275   -1.0757 O.2       0 UNK        -0.5197 
      4 N          28.8617   -4.1718   -1.6832 N.am      1 UNK        -0.4892 
      5 CA         28.3572   -3.3383   -0.5818 C.3       1 UNK         0.0835 
      6 C6         29.0893   -1.9738   -0.4963 C.3       12 UNK        -0.0855 
      7 S7         30.9070   -2.1312   -0.3594 S.3       12 UNK        -0.2931 
      8 C8         31.5004   -1.2021   -1.8124 C.3       12 UNK         0.0378 
      9 C9         31.5495   -2.0643   -3.0667 C.ar      12 UNK        -0.0802 
     10 C10        32.7630   -2.5916   -3.5153 C.ar      12 UNK        -0.0944 
     11 C11        32.8148   -3.3575   -4.6832 C.ar      12 UNK        -0.0787 
     12 C12        31.6362   -3.6186   -5.3877 C.ar      12 UNK        -0.0862 
     13 C13        30.4105   -3.1080   -4.9511 C.ar      12 UNK        -0.0733 
     14 C14        30.3852   -2.3159   -3.7941 C.ar      12 UNK        -0.0832 
     15 C15        29.1580   -3.4460   -5.7668 C.3       12 UNK         0.0240 
     16 S16        27.5669   -2.9011   -5.0541 S.3       12 UNK        -0.2522 
     17 C17        27.6984   -1.0968   -5.2889 C.3       12 UNK        -0.0967 
     18 CA         26.7676   -0.5758   -6.4012 C.3       5 UNK         0.0660 
     19 N          25.3497   -0.8055   -6.1065 N.am      5 UNK        -0.4015 
     20 C          24.3541   -0.6882   -6.9998 C.2       4 UNK         0.4946 
     21 O          24.5339   -0.3364   -8.1669 O.2       4 UNK        -0.5353 
     22 CA         22.9176   -0.9730   -6.5230 C.3       4 UNK         0.0277 
     23 CB         22.4684   -2.3650   -6.9955 C.3       4 UNK        -0.1981 
     24 N          22.7400   -0.8803   -5.0718 N.am      4 UNK        -0.4209 
     25 C          22.8686    0.2378   -4.3421 C.2       3 UNK         0.4942 
     26 O          23.1069    1.3458   -4.8244 O.2       3 UNK        -0.5208 
     27 CA         22.7661    0.0770   -2.8124 C.3       3 UNK         0.0250 
     28 CB         21.3225    0.3149   -2.3413 C.3       3 UNK        -0.1990 
     29 N          23.2326   -1.2307   -2.3262 N.am      3 UNK        -0.4232 
     30 C          24.4861   -1.6842   -2.4700 C.2       2 UNK         0.4993 
     31 O          25.3793   -1.0359   -3.0173 O.2       2 UNK        -0.5286 
     32 CA         24.7622   -3.1210   -2.0047 C.3       2 UNK         0.0209 
     33 CB         24.2887   -4.1217   -3.0733 C.3       2 UNK        -0.1931 
     34 N          26.1941   -3.3265   -1.7807 N.am      2 UNK        -0.4546 
     35 C          26.8255   -3.1209   -0.6173 C.2       1 UNK         0.5154 
     36 O          26.2463   -2.7725    0.4133 O.2       1 UNK        -0.5181 
     37 C          27.1093    0.8902   -6.7331 C.2       5 UNK         0.5014 
     38 O          28.2188    1.1370   -7.2072 O.2       5 UNK        -0.5248 
     39 N          26.1714    1.8295   -6.5395 N.am      6 UNK        -0.4434 
     40 CA         26.2685    3.2063   -7.0303 C.3       6 UNK         0.0363 
     41 CB         25.0507    4.0080   -6.5459 C.3       6 UNK        -0.1936 
     42 C          26.3944    3.2835   -8.5646 C.2       6 UNK         0.5081 
     43 O          27.1269    4.1358   -9.0656 O.2       6 UNK        -0.5248 
     44 N          25.7340    2.3599   -9.2816 N.am      7 UNK        -0.4718 
     45 CA         25.8437    2.2115  -10.7374 C.3       7 UNK         0.0273 
     46 CB         24.6634    1.3722  -11.2514 C.3       7 UNK        -0.1935 
     47 C          27.1810    1.5867  -11.1780 C.2       7 UNK         0.5018 
     48 O          27.6185    1.8282  -12.3030 O.2       7 UNK        -0.5186 
     49 N          27.8100    0.8135  -10.2826 N.am      8 UNK        -0.4240 
     50 CA         29.1291    0.2011  -10.4624 C.3       8 UNK         0.0235 
     51 CB         29.1385   -1.1653   -9.7517 C.3       8 UNK        -0.2000 
     52 C          30.2710    1.0892   -9.9315 C.2       8 UNK         0.4941 
     53 O          31.4227    0.6535   -9.9639 O.2       8 UNK        -0.5273 
     54 N          29.9393    2.2816   -9.4074 N.am      9 UNK        -0.4262 
     55 CA         30.8247    3.2536   -8.7537 C.3       9 UNK         0.0264 
     56 CB         31.7458    3.9235   -9.7951 C.3       9 UNK        -0.1955 
     57 C          31.6055    2.6610   -7.5615 C.2       9 UNK         0.5031 
     58 O          32.7713    3.0109   -7.3623 O.2       9 UNK        -0.5390 
     59 N          30.9646    1.7417   -6.8183 N.am      10 UNK        -0.4204 
     60 CA         31.5228    0.9540   -5.7081 C.3       10 UNK         0.0237 
     61 CB         31.6662    1.8345   -4.4494 C.3       10 UNK        -0.1985 
     62 C          32.8263    0.2137   -6.0811 C.2       10 UNK         0.4970 
     63 O          33.7634    0.1898   -5.2830 O.2       10 UNK        -0.4914 
     64 N          32.8599   -0.3141   -7.3141 N.am      11 UNK        -0.4285 
     65 CA         34.0047   -0.9276   -8.0065 C.3       11 UNK         0.1007 
     66 C          35.2663   -0.0257   -8.1846 C.2       11 UNK         0.5703 
     67 N          35.1788    1.2883   -8.0063 N.am      11 UNK        -0.7361 
     68 O          36.3357   -0.5143   -8.5430 O.2       11 UNK        -0.4986 
     69 C69        34.2930   -2.4010   -7.5827 C.3       12 UNK        -0.0947 
     70 S70        35.1622   -2.6410   -5.9923 S.3       12 UNK        -0.2240 
     71 C71        34.1443   -3.9117   -5.1742 C.3       12 UNK         0.0194 
     72 H72        28.5395   -6.2898   -3.8388 H         1 UNK         0.0906 
     73 H73        30.1071   -5.5845   -3.4259 H         1 UNK         0.0906 
     74 H74        29.6414   -7.1444   -2.7544 H         1 UNK         0.0906 
     75 H75        29.4964   -3.7102   -2.3200 H         1 UNK         0.3140 
     76 H76        28.5631   -3.8804    0.3440 H         1 UNK         0.1085 
     77 H77        28.8269   -1.3408   -1.3448 H         1 UNK         0.0836 
     78 H78        28.7514   -1.4271    0.3865 H         1 UNK         0.0836 
     79 H79        30.8739   -0.3248   -1.9797 H         1 UNK         0.0731 
     80 H80        32.4967   -0.8164   -1.5902 H         1 UNK         0.0731 
     81 H81        33.6740   -2.3911   -2.9681 H         1 UNK         0.1312 
     82 H82        31.6729   -4.2237   -6.2834 H         1 UNK         0.1406 
     83 H83        29.4616   -1.8875   -3.4405 H         1 UNK         0.1631 
     84 H84        29.2584   -3.0241   -6.7680 H         1 UNK         0.0717 
     85 H85        29.1083   -4.5283   -5.8939 H         1 UNK         0.0717 
     86 H86        27.4927   -0.5959   -4.3422 H         1 UNK         0.0934 
     87 H87        28.7335   -0.8547   -5.5295 H         1 UNK         0.0934 
     88 H88        26.9930   -1.1423   -7.3071 H         1 UNK         0.0739 
     89 H89        25.1390   -1.0590   -5.1479 H         1 UNK         0.3093 
     90 H90        22.2698   -0.2259   -6.9867 H         1 UNK         0.0818 
     91 H91        21.4240   -2.5527   -6.7453 H         1 UNK         0.0819 
     92 H92        22.5606   -2.4577   -8.0788 H         1 UNK         0.0819 
     93 H93        23.0704   -3.1577   -6.5489 H         1 UNK         0.0819 
     94 H94        22.5355   -1.7407   -4.5854 H         1 UNK         0.3041 
     95 H95        23.4030    0.8425   -2.3636 H         1 UNK         0.0784 
     96 H96        20.9609    1.2902   -2.6707 H         1 UNK         0.0793 
     97 H97        20.6378   -0.4367   -2.7364 H         1 UNK         0.0793 
     98 H98        21.2514    0.2967   -1.2536 H         1 UNK         0.0793 
     99 H99        22.5457   -1.8180   -1.8742 H         1 UNK         0.3024 
    100 H100       24.2145   -3.3039   -1.0772 H         1 UNK         0.1171 
    101 H101       24.4975   -5.1486   -2.7718 H         1 UNK         0.0786 
    102 H102       23.2129   -4.0480   -3.2362 H         1 UNK         0.0786 
    103 H103       24.7773   -3.9512   -4.0338 H         1 UNK         0.0786 
    104 H104       26.7517   -3.5464   -2.5942 H         1 UNK         0.2977 
    105 H105       25.2912    1.5562   -6.1225 H         1 UNK         0.3127 
    106 H106       27.1688    3.6512   -6.6010 H         1 UNK         0.0770 
    107 H107       24.1158    3.5906   -6.9226 H         1 UNK         0.0814 
    108 H108       25.1061    5.0441   -6.8828 H         1 UNK         0.0814 
    109 H109       24.9939    4.0241   -5.4573 H         1 UNK         0.0814 
    110 H110       25.1762    1.6647   -8.7970 H         1 UNK         0.2983 
    111 H111       25.7807    3.2034  -11.1910 H         1 UNK         0.0947 
    112 H112       24.6951    1.2783  -12.3378 H         1 UNK         0.0806 
    113 H113       23.7083    1.8303  -10.9942 H         1 UNK         0.0806 
    114 H114       24.6738    0.3633  -10.8368 H         1 UNK         0.0806 
    115 H115       27.3870    0.7035   -9.3718 H         1 UNK         0.3000 
    116 H116       29.3128    0.0352  -11.5260 H         1 UNK         0.0850 
    117 H117       28.3199   -1.7987  -10.0939 H         1 UNK         0.0810 
    118 H118       29.0546   -1.0603   -8.6698 H         1 UNK         0.0810 
    119 H119       30.0661   -1.7032   -9.9522 H         1 UNK         0.0810 
    120 H120       28.9579    2.5253   -9.3983 H         1 UNK         0.3040 
    121 H121       30.1756    4.0253   -8.3370 H         1 UNK         0.0766 
    122 H122       31.1708    4.3505  -10.6167 H         1 UNK         0.0812 
    123 H123       32.4592    3.2146  -10.2169 H         1 UNK         0.0812 
    124 H124       32.3199    4.7352   -9.3468 H         1 UNK         0.0812 
    125 H125       29.9952    1.5328   -7.0599 H         1 UNK         0.3205 
    126 H126       30.7955    0.1750   -5.4828 H         1 UNK         0.0754 
    127 H127       32.3913    2.6350   -4.5996 H         1 UNK         0.0769 
    128 H128       32.0029    1.2470   -3.5949 H         1 UNK         0.0769 
    129 H129       30.7147    2.2896   -4.1746 H         1 UNK         0.0769 
    130 H130       32.0613   -0.1498   -7.9125 H         1 UNK         0.2981 
    131 H131       33.6376   -1.0050   -9.0304 H         1 UNK         0.0541 
    132 H132       34.3062    1.7244   -7.7277 H         1 UNK         0.3459 
    133 H133       35.9991    1.8562   -8.1425 H         1 UNK         0.3459 
    134 H134       34.9003   -2.8837   -8.3499 H         1 UNK         0.0612 
    135 H135       33.3573   -2.9592   -7.5731 H         1 UNK         0.0612 
    136 H136       34.7015   -4.3108   -4.3256 H         1 UNK         0.0624 
    137 H137       33.9907   -4.7485   -5.8574 H         1 UNK         0.0624 
@<TRIPOS>BOND
     1    1    2 1    
     2    1   72 1    
     3    1   73 1    
     4    1   74 1    
     5    2    3 2    
     6    2    4 am   BACKBONE|DICT|INTERRES
     7    4    5 1    
     8    4   75 1    
     9    5    6 1    
    10    5   35 1    
    11    5   76 1    
    12    6    7 1    
    13    6   77 1    
    14    6   78 1    
    15    7    8 1    
    16    8    9 1    
    17    8   79 1    
    18    8   80 1    
    19    9   10 ar   
    20    9   14 ar   
    21   10   11 ar   
    22   10   81 1    
    23   11   12 ar   
    24   11   71 1    
    25   12   13 ar   
    26   12   82 1    
    27   13   14 ar   
    28   13   15 1    
    29   14   83 1    
    30   15   16 1    
    31   15   84 1    
    32   15   85 1    
    33   16   17 1    
    34   17   18 1    
    35   17   86 1    
    36   17   87 1    
    37   18   19 1    
    38   18   37 1    
    39   18   88 1    
    40   19   20 am   BACKBONE|DICT|INTERRES
    41   19   89 1    
    42   20   21 2    
    43   20   22 1    
    44   22   23 1    
    45   22   24 1    
    46   22   90 1    
    47   23   91 1    
    48   23   92 1    
    49   23   93 1    
    50   24   25 am   BACKBONE|DICT|INTERRES
    51   24   94 1    
    52   25   26 2    
    53   25   27 1    
    54   27   28 1    
    55   27   29 1    
    56   27   95 1    
    57   28   96 1    
    58   28   97 1    
    59   28   98 1    
    60   29   30 am   BACKBONE|DICT|INTERRES
    61   29   99 1    
    62   30   31 2    
    63   30   32 1    
    64   32   33 1    
    65   32   34 1    
    66   32  100 1    
    67   33  101 1    
    68   33  102 1    
    69   33  103 1    
    70   34   35 am   BACKBONE|DICT|INTERRES
    71   34  104 1    
    72   35   36 2    
    73   37   38 2    
    74   37   39 am   BACKBONE|DICT|INTERRES
    75   39   40 1    
    76   39  105 1    
    77   40   41 1    
    78   40   42 1    
    79   40  106 1    
    80   41  107 1    
    81   41  108 1    
    82   41  109 1    
    83   42   43 2    
    84   42   44 am   BACKBONE|DICT|INTERRES
    85   44   45 1    
    86   44  110 1    
    87   45   46 1    
    88   45   47 1    
    89   45  111 1    
    90   46  112 1    
    91   46  113 1    
    92   46  114 1    
    93   47   48 2    
    94   47   49 am   BACKBONE|DICT|INTERRES
    95   49   50 1    
    96   49  115 1    
    97   50   51 1    
    98   50   52 1    
    99   50  116 1    
   100   51  117 1    
   101   51  118 1    
   102   51  119 1    
   103   52   53 2    
   104   52   54 am   BACKBONE|DICT|INTERRES
   105   54   55 1    
   106   54  120 1    
   107   55   56 1    
   108   55   57 1    
   109   55  121 1    
   110   56  122 1    
   111   56  123 1    
   112   56  124 1    
   113   57   58 2    
   114   57   59 am   BACKBONE|DICT|INTERRES
   115   59   60 1    
   116   59  125 1    
   117   60   61 1    
   118   60   62 1    
   119   60  126 1    
   120   61  127 1    
   121   61  128 1    
   122   61  129 1    
   123   62   63 2    
   124   62   64 am   BACKBONE|DICT|INTERRES
   125   64   65 1    
   126   64  130 1    
   127   65   66 1    
   128   65   69 1    
   129   65  131 1    
   130   66   67 am   BACKBONE|DICT|INTERRES
   131   66   68 2    
   132   67  132 1    
   133   67  133 1    
   134   69   70 1    
   135   69  134 1    
   136   69  135 1    
   137   70   71 1    
   138   71  136 1    
   139   71  137 1    
@<TRIPOS>SUBSTRUCTURE
     1 UNK         1 GROUP             0       ****    0 ROOT    
