@<TRIPOS>MOLECULE
3R137
137   139    1
SMALL
USER_CHARGES


@<TRIPOS>ATOM
      1 CA         22.8402   -5.5721   -3.0114 C.3       0 UNK        -0.2020 
      2 C          23.9386   -5.0399   -2.1038 C.2       0 UNK         0.4855 
      3 O          23.6567   -4.6209   -0.9807 O.2       0 UNK        -0.5197 
      4 N          25.1895   -5.0395   -2.5829 N.am      1 UNK        -0.4892 
      5 CA         26.3750   -4.5431   -1.8740 C.3       1 UNK         0.0835 
      6 C6         27.6634   -5.1912   -2.4511 C.3       12 UNK        -0.0855 
      7 S7         29.0478   -5.1897   -1.2658 S.3       12 UNK        -0.2931 
      8 C8         30.4932   -5.1485   -2.3852 C.3       12 UNK         0.0378 
      9 C9         30.7146   -3.7916   -3.0484 C.ar      12 UNK        -0.0802 
     10 C10        30.9925   -3.7074   -4.4172 C.ar      12 UNK        -0.0944 
     11 C11        31.2081   -2.4650   -5.0263 C.ar      12 UNK        -0.0787 
     12 C12        31.1380   -1.2993   -4.2584 C.ar      12 UNK        -0.0862 
     13 C13        30.8727   -1.3716   -2.8888 C.ar      12 UNK        -0.0733 
     14 C14        30.6767   -2.6186   -2.2904 C.ar      12 UNK        -0.0832 
     15 C15        30.7915   -0.1153   -2.0384 C.3       12 UNK         0.0240 
     16 S16        29.0985    0.1276   -1.4213 S.3       12 UNK        -0.2522 
     17 C17        28.4715    1.4896   -2.4511 C.3       12 UNK        -0.0967 
     18 CA         28.4801    1.2689   -3.9885 C.3       5 UNK         0.0660 
     19 N          27.8697    0.0098   -4.4369 N.am      5 UNK        -0.4015 
     20 C          27.8833   -0.4241   -5.7102 C.2       4 UNK         0.4946 
     21 O          28.5185    0.1164   -6.6147 O.2       4 UNK        -0.5353 
     22 CA         26.9989   -1.6258   -6.0703 C.3       4 UNK         0.0277 
     23 CB         27.7658   -2.9456   -5.9078 C.3       4 UNK        -0.1981 
     24 N          25.7660   -1.6490   -5.2841 N.am      4 UNK        -0.4209 
     25 C          24.7384   -0.8080   -5.4777 C.2       3 UNK         0.4942 
     26 O          24.7083    0.0383   -6.3706 O.2       3 UNK        -0.5208 
     27 CA         23.5661   -0.8941   -4.4842 C.3       3 UNK         0.0250 
     28 CB         22.5602   -1.9674   -4.9295 C.3       3 UNK        -0.1990 
     29 N          24.0024   -1.1728   -3.1146 N.am      3 UNK        -0.4232 
     30 C          24.7779   -0.3609   -2.3817 C.2       2 UNK         0.4993 
     31 O          25.1327    0.7590   -2.7499 O.2       2 UNK        -0.5286 
     32 CA         25.2968   -0.9240   -1.0461 C.3       2 UNK         0.0209 
     33 CB         24.3276   -0.5842    0.0964 C.3       2 UNK        -0.1931 
     34 N          25.5302   -2.3746   -1.0775 N.am      2 UNK        -0.4546 
     35 C          26.3866   -2.9980   -1.9005 C.2       1 UNK         0.5154 
     36 O          27.0749   -2.3961   -2.7238 O.2       1 UNK        -0.5181 
     37 C          27.8133    2.4808   -4.6661 C.2       5 UNK         0.5014 
     38 O          28.5175    3.3376   -5.2001 O.2       5 UNK        -0.5248 
     39 N          26.4719    2.5219   -4.6319 N.am      6 UNK        -0.4434 
     40 CA         25.6478    3.5845   -5.2140 C.3       6 UNK         0.0363 
     41 CB         24.1763    3.3652   -4.8278 C.3       6 UNK        -0.1936 
     42 C          25.8001    3.7016   -6.7394 C.2       6 UNK         0.5081 
     43 O          25.9152    4.8150   -7.2526 O.2       6 UNK        -0.5248 
     44 N          25.8207    2.5557   -7.4328 N.am      7 UNK        -0.4718 
     45 CA         26.0599    2.4720   -8.8759 C.3       7 UNK         0.0273 
     46 CB         25.5750    1.1028   -9.3793 C.3       7 UNK        -0.1935 
     47 C          27.5337    2.6855   -9.2684 C.2       7 UNK         0.5018 
     48 O          27.7974    3.0068  -10.4276 O.2       7 UNK        -0.5186 
     49 N          28.4555    2.4624   -8.3176 N.am      8 UNK        -0.4240 
     50 CA         29.9134    2.3744   -8.4764 C.3       8 UNK         0.0235 
     51 CB         30.5129    3.7460   -8.8484 C.3       8 UNK        -0.2000 
     52 C          30.3113    1.2490   -9.4528 C.2       8 UNK         0.4941 
     53 O          31.2133    1.4343  -10.2726 O.2       8 UNK        -0.5273 
     54 N          29.5998    0.1150   -9.3608 N.am      9 UNK        -0.4262 
     55 CA         29.5835   -1.0030  -10.3106 C.3       9 UNK         0.0264 
     56 CB         28.4656   -1.9794   -9.9027 C.3       9 UNK        -0.1955 
     57 C          30.9445   -1.7092  -10.4397 C.2       9 UNK         0.5031 
     58 O          31.1876   -2.6997   -9.7502 O.2       9 UNK        -0.5390 
     59 N          31.8090   -1.1520  -11.3003 N.am      10 UNK        -0.4204 
     60 CA         33.2325   -1.4710  -11.4759 C.3       10 UNK         0.0237 
     61 CB         33.4301   -2.9172  -11.9800 C.3       10 UNK        -0.1985 
     62 C          34.0793   -1.1471  -10.2255 C.2       10 UNK         0.4970 
     63 O          35.1482   -1.7347  -10.0487 O.2       10 UNK        -0.4914 
     64 N          33.5935   -0.2135   -9.3962 N.am      11 UNK        -0.4285 
     65 CA         34.2023    0.2147   -8.1261 C.3       11 UNK         0.1007 
     66 C          34.4575    1.7478   -8.0622 C.2       11 UNK         0.5703 
     67 N          34.1581    2.5227   -9.0988 N.am      11 UNK        -0.7361 
     68 O          34.9613    2.2460   -7.0585 O.2       11 UNK        -0.4986 
     69 C69        33.3915   -0.2844   -6.8959 C.3       12 UNK        -0.0947 
     70 S70        33.2851   -2.1068   -6.8158 S.3       12 UNK        -0.2240 
     71 C71        31.5111   -2.3829   -6.5149 C.3       12 UNK         0.0194 
     72 H72        23.2200   -5.8497   -3.9945 H         1 UNK         0.0906 
     73 H73        22.3801   -6.4528   -2.5642 H         1 UNK         0.0906 
     74 H74        22.0665   -4.8170   -3.1480 H         1 UNK         0.0906 
     75 H75        25.3570   -5.3862   -3.5172 H         1 UNK         0.3140 
     76 H76        26.2895   -4.8505   -0.8288 H         1 UNK         0.1085 
     77 H77        27.9661   -4.7257   -3.3891 H         1 UNK         0.0836 
     78 H78        27.4744   -6.2381   -2.6942 H         1 UNK         0.0836 
     79 H79        30.3815   -5.9340   -3.1344 H         1 UNK         0.0731 
     80 H80        31.3854   -5.3978   -1.8094 H         1 UNK         0.0731 
     81 H81        31.0427   -4.6097   -5.0111 H         1 UNK         0.1312 
     82 H82        31.2943   -0.3396   -4.7296 H         1 UNK         0.1406 
     83 H83        30.4696   -2.6715   -1.2303 H         1 UNK         0.1631 
     84 H84        31.1315    0.7639   -2.5871 H         1 UNK         0.0717 
     85 H85        31.4634   -0.2208   -1.1856 H         1 UNK         0.0717 
     86 H86        27.4621    1.7020   -2.0959 H         1 UNK         0.0934 
     87 H87        29.0563    2.3782   -2.2038 H         1 UNK         0.0934 
     88 H88        29.5187    1.2515   -4.3216 H         1 UNK         0.0739 
     89 H89        27.4062   -0.5541   -3.7331 H         1 UNK         0.3093 
     90 H90        26.7219   -1.5308   -7.1225 H         1 UNK         0.0818 
     91 H91        28.5905   -3.0028   -6.6175 H         1 UNK         0.0819 
     92 H92        28.2020   -3.0370   -4.9148 H         1 UNK         0.0819 
     93 H93        27.1259   -3.8103   -6.0825 H         1 UNK         0.0819 
     94 H94        25.7658   -2.2489   -4.4703 H         1 UNK         0.3041 
     95 H95        23.0600    0.0736   -4.4835 H         1 UNK         0.0784 
     96 H96        22.1961   -1.7636   -5.9376 H         1 UNK         0.0793 
     97 H97        23.0059   -2.9628   -4.9398 H         1 UNK         0.0793 
     98 H98        21.6905   -1.9943   -4.2727 H         1 UNK         0.0793 
     99 H99        23.7492   -2.0675   -2.7222 H         1 UNK         0.3024 
    100 H100       26.2529   -0.4390   -0.8415 H         1 UNK         0.1171 
    101 H101       24.7297   -0.8922    1.0617 H         1 UNK         0.0786 
    102 H102       24.1494    0.4910    0.1497 H         1 UNK         0.0786 
    103 H103       23.3600   -1.0701   -0.0355 H         1 UNK         0.0786 
    104 H104       24.9227   -2.9531   -0.5080 H         1 UNK         0.2977 
    105 H105       25.9784    1.7966   -4.1150 H         1 UNK         0.3127 
    106 H106       25.9767    4.5295   -4.7766 H         1 UNK         0.0770 
    107 H107       23.7912    2.4245   -5.2221 H         1 UNK         0.0814 
    108 H108       23.5468    4.1655   -5.2189 H         1 UNK         0.0814 
    109 H109       24.0481    3.3505   -3.7452 H         1 UNK         0.0814 
    110 H110       25.6378    1.6816   -6.9460 H         1 UNK         0.2983 
    111 H111       25.4730    3.2482   -9.3722 H         1 UNK         0.0947 
    112 H112       26.1090    0.2858   -8.8932 H         1 UNK         0.0806 
    113 H113       25.7275    1.0012  -10.4548 H         1 UNK         0.0806 
    114 H114       24.5107    0.9647   -9.1877 H         1 UNK         0.0806 
    115 H115       28.1167    2.1738   -7.4080 H         1 UNK         0.3000 
    116 H116       30.3115    2.0911   -7.5008 H         1 UNK         0.0850 
    117 H117       30.2015    4.5169   -8.1434 H         1 UNK         0.0810 
    118 H118       30.2137    4.0628   -9.8479 H         1 UNK         0.0810 
    119 H119       31.6021    3.7130   -8.8310 H         1 UNK         0.0810 
    120 H120       28.9727    0.0414   -8.5650 H         1 UNK         0.3040 
    121 H121       29.3232   -0.5983  -11.2909 H         1 UNK         0.0766 
    122 H122       28.4233   -2.8307  -10.5835 H         1 UNK         0.0812 
    123 H123       27.4878   -1.4990   -9.9260 H         1 UNK         0.0812 
    124 H124       28.6235   -2.3737   -8.8992 H         1 UNK         0.0812 
    125 H125       31.5073   -0.2941  -11.7468 H         1 UNK         0.3205 
    126 H126       33.5935   -0.8017  -12.2581 H         1 UNK         0.0754 
    127 H127       34.4671   -3.0921  -12.2692 H         1 UNK         0.0769 
    128 H128       32.8127   -3.1209  -12.8548 H         1 UNK         0.0769 
    129 H129       33.1809   -3.6519  -11.2138 H         1 UNK         0.0769 
    130 H130       32.7263    0.2487   -9.6463 H         1 UNK         0.2981 
    131 H131       35.2001   -0.2205   -8.0505 H         1 UNK         0.0541 
    132 H132       34.3479    3.5104   -9.0402 H         1 UNK         0.3459 
    133 H133       33.7400    2.1406   -9.9321 H         1 UNK         0.3459 
    134 H134       33.8540    0.0495   -5.9655 H         1 UNK         0.0612 
    135 H135       32.3903    0.1487   -6.9109 H         1 UNK         0.0612 
    136 H136       31.2230   -3.3130   -7.0068 H         1 UNK         0.0624 
    137 H137       30.9120   -1.6010   -6.9841 H         1 UNK         0.0624 
@<TRIPOS>BOND
     1    1    2 1    
     2    1   72 1    
     3    1   73 1    
     4    1   74 1    
     5    2    3 2    
     6    2    4 am   BACKBONE|DICT|INTERRES
     7    4    5 1    
     8    4   75 1    
     9    5    6 1    
    10    5   35 1    
    11    5   76 1    
    12    6    7 1    
    13    6   77 1    
    14    6   78 1    
    15    7    8 1    
    16    8    9 1    
    17    8   79 1    
    18    8   80 1    
    19    9   10 ar   
    20    9   14 ar   
    21   10   11 ar   
    22   10   81 1    
    23   11   12 ar   
    24   11   71 1    
    25   12   13 ar   
    26   12   82 1    
    27   13   14 ar   
    28   13   15 1    
    29   14   83 1    
    30   15   16 1    
    31   15   84 1    
    32   15   85 1    
    33   16   17 1    
    34   17   18 1    
    35   17   86 1    
    36   17   87 1    
    37   18   19 1    
    38   18   37 1    
    39   18   88 1    
    40   19   20 am   BACKBONE|DICT|INTERRES
    41   19   89 1    
    42   20   21 2    
    43   20   22 1    
    44   22   23 1    
    45   22   24 1    
    46   22   90 1    
    47   23   91 1    
    48   23   92 1    
    49   23   93 1    
    50   24   25 am   BACKBONE|DICT|INTERRES
    51   24   94 1    
    52   25   26 2    
    53   25   27 1    
    54   27   28 1    
    55   27   29 1    
    56   27   95 1    
    57   28   96 1    
    58   28   97 1    
    59   28   98 1    
    60   29   30 am   BACKBONE|DICT|INTERRES
    61   29   99 1    
    62   30   31 2    
    63   30   32 1    
    64   32   33 1    
    65   32   34 1    
    66   32  100 1    
    67   33  101 1    
    68   33  102 1    
    69   33  103 1    
    70   34   35 am   BACKBONE|DICT|INTERRES
    71   34  104 1    
    72   35   36 2    
    73   37   38 2    
    74   37   39 am   BACKBONE|DICT|INTERRES
    75   39   40 1    
    76   39  105 1    
    77   40   41 1    
    78   40   42 1    
    79   40  106 1    
    80   41  107 1    
    81   41  108 1    
    82   41  109 1    
    83   42   43 2    
    84   42   44 am   BACKBONE|DICT|INTERRES
    85   44   45 1    
    86   44  110 1    
    87   45   46 1    
    88   45   47 1    
    89   45  111 1    
    90   46  112 1    
    91   46  113 1    
    92   46  114 1    
    93   47   48 2    
    94   47   49 am   BACKBONE|DICT|INTERRES
    95   49   50 1    
    96   49  115 1    
    97   50   51 1    
    98   50   52 1    
    99   50  116 1    
   100   51  117 1    
   101   51  118 1    
   102   51  119 1    
   103   52   53 2    
   104   52   54 am   BACKBONE|DICT|INTERRES
   105   54   55 1    
   106   54  120 1    
   107   55   56 1    
   108   55   57 1    
   109   55  121 1    
   110   56  122 1    
   111   56  123 1    
   112   56  124 1    
   113   57   58 2    
   114   57   59 am   BACKBONE|DICT|INTERRES
   115   59   60 1    
   116   59  125 1    
   117   60   61 1    
   118   60   62 1    
   119   60  126 1    
   120   61  127 1    
   121   61  128 1    
   122   61  129 1    
   123   62   63 2    
   124   62   64 am   BACKBONE|DICT|INTERRES
   125   64   65 1    
   126   64  130 1    
   127   65   66 1    
   128   65   69 1    
   129   65  131 1    
   130   66   67 am   BACKBONE|DICT|INTERRES
   131   66   68 2    
   132   67  132 1    
   133   67  133 1    
   134   69   70 1    
   135   69  134 1    
   136   69  135 1    
   137   70   71 1    
   138   71  136 1    
   139   71  137 1    
@<TRIPOS>SUBSTRUCTURE
     1 UNK         1 GROUP             0       ****    0 ROOT    
