@<TRIPOS>MOLECULE
3R137
137   139    1
SMALL
USER_CHARGES


@<TRIPOS>ATOM
      1 CA         23.4078   -5.2362   -0.4623 C.3       0 UNK        -0.2020 
      2 C          24.5535   -4.2943   -0.1256 C.2       0 UNK         0.4855 
      3 O          24.4093   -3.4436    0.7526 O.2       0 UNK        -0.5197 
      4 N          25.6899   -4.4295   -0.8221 N.am      1 UNK        -0.4892 
      5 CA         26.9004   -3.6199   -0.6410 C.3       1 UNK         0.0835 
      6 C6         28.1467   -4.3750   -1.1721 C.3       12 UNK        -0.0855 
      7 S7         29.6839   -3.8176   -0.3706 S.3       12 UNK        -0.2931 
      8 C8         30.8963   -4.0604   -1.7110 C.3       12 UNK         0.0378 
      9 C9         30.8316   -2.9749   -2.7794 C.ar      12 UNK        -0.0802 
     10 C10        30.6815   -3.3144   -4.1290 C.ar      12 UNK        -0.0944 
     11 C11        30.6923   -2.3213   -5.1137 C.ar      12 UNK        -0.0787 
     12 C12        30.8575   -0.9862   -4.7400 C.ar      12 UNK        -0.0862 
     13 C13        30.9707   -0.6257   -3.3941 C.ar      12 UNK        -0.0733 
     14 C14        30.9706   -1.6296   -2.4218 C.ar      12 UNK        -0.0832 
     15 C15        31.1076    0.8353   -2.9692 C.3       12 UNK         0.0240 
     16 S16        29.9969    1.9918   -3.8473 S.3       12 UNK        -0.2522 
     17 C17        28.3625    1.1876   -3.6972 C.3       12 UNK        -0.0967 
     18 CA         27.8657    0.6615   -5.0714 C.3       5 UNK         0.0660 
     19 N          27.2114   -0.6495   -4.9615 N.am      5 UNK        -0.4015 
     20 C          26.9007   -1.4521   -5.9915 C.2       4 UNK         0.4946 
     21 O          27.1420   -1.1792   -7.1658 O.2       4 UNK        -0.5353 
     22 CA         26.1275   -2.7385   -5.6667 C.3       4 UNK         0.0277 
     23 CB         27.0821   -3.8669   -5.2467 C.3       4 UNK        -0.1981 
     24 N          25.1345   -2.4981   -4.6174 N.am      4 UNK        -0.4209 
     25 C          23.9307   -1.9476   -4.8383 C.2       3 UNK         0.4942 
     26 O          23.4946   -1.6913   -5.9597 O.2       3 UNK        -0.5208 
     27 CA         23.0708   -1.6012   -3.6086 C.3       3 UNK         0.0250 
     28 CB         22.1504   -2.7790   -3.2513 C.3       3 UNK        -0.1990 
     29 N          23.8630   -1.2306   -2.4339 N.am      3 UNK        -0.4232 
     30 C          24.6391   -0.1404   -2.3403 C.2       2 UNK         0.4993 
     31 O          24.7134    0.7266   -3.2099 O.2       2 UNK        -0.5286 
     32 CA         25.5334   -0.0387   -1.0908 C.3       2 UNK         0.0209 
     33 CB         24.8134    0.7285    0.0288 C.3       2 UNK        -0.1931 
     34 N          25.9679   -1.3481   -0.5872 N.am      2 UNK        -0.4546 
     35 C          26.7027   -2.2289   -1.2809 C.2       1 UNK         0.5154 
     36 O          27.1135   -2.0021   -2.4202 O.2       1 UNK        -0.5181 
     37 C          27.0474    1.7204   -5.8469 C.2       5 UNK         0.5014 
     38 O          27.6121    2.7300   -6.2701 O.2       5 UNK        -0.5248 
     39 N          25.7553    1.4589   -6.0947 N.am      6 UNK        -0.4434 
     40 CA         24.9229    2.1881   -7.0562 C.3       6 UNK         0.0363 
     41 CB         23.4771    1.6775   -6.9650 C.3       6 UNK        -0.1936 
     42 C          25.4410    2.0928   -8.5081 C.2       6 UNK         0.5081 
     43 O          25.1583    2.9896   -9.3021 O.2       6 UNK        -0.5248 
     44 N          26.2218    1.0468   -8.8212 N.am      7 UNK        -0.4718 
     45 CA         26.9566    0.8769  -10.0778 C.3       7 UNK         0.0273 
     46 CB         26.9083   -0.6067  -10.4893 C.3       7 UNK        -0.1935 
     47 C          28.4081    1.3957   -9.9768 C.2       7 UNK         0.5018 
     48 O          29.2511    0.9498  -10.7566 O.2       7 UNK        -0.5186 
     49 N          28.6596    2.3251   -9.0398 N.am      8 UNK        -0.4240 
     50 CA         29.9265    2.9774   -8.6829 C.3       8 UNK         0.0235 
     51 CB         30.6296    3.5818   -9.9183 C.3       8 UNK        -0.2000 
     52 C          30.8707    2.0684   -7.8776 C.2       8 UNK         0.4941 
     53 O          30.6677    0.8568   -7.8026 O.2       8 UNK        -0.5273 
     54 N          31.9051    2.6869   -7.2867 N.am      9 UNK        -0.4262 
     55 CA         32.9762    2.0064   -6.5474 C.3       9 UNK         0.0264 
     56 CB         33.8088    3.0413   -5.7749 C.3       9 UNK        -0.1955 
     57 C          33.8742    1.1467   -7.4550 C.2       9 UNK         0.5031 
     58 O          34.3602    0.1031   -7.0189 O.2       9 UNK        -0.5390 
     59 N          34.0442    1.5792   -8.7114 N.am      10 UNK        -0.4204 
     60 CA         34.5726    0.7729   -9.8088 C.3       10 UNK         0.0237 
     61 CB         35.3281    1.6875  -10.7914 C.3       10 UNK        -0.1985 
     62 C          33.3755    0.0608  -10.4571 C.2       10 UNK         0.4970 
     63 O          32.8470    0.5522  -11.4547 O.2       10 UNK        -0.4914 
     64 N          32.9363   -1.0213   -9.8018 N.am      11 UNK        -0.4285 
     65 CA         31.6729   -1.7504   -9.9959 C.3       11 UNK         0.1007 
     66 C          31.3267   -2.0536  -11.4801 C.2       11 UNK         0.5703 
     67 N          30.3151   -1.4006  -12.0349 N.am      11 UNK        -0.7361 
     68 O          31.9543   -2.8970  -12.1183 O.2       11 UNK        -0.4986 
     69 C69        31.6403   -3.0530   -9.1456 C.3       12 UNK        -0.0947 
     70 S70        32.1372   -2.8147   -7.4042 S.3       12 UNK        -0.2240 
     71 C71        30.5247   -2.6748   -6.5836 C.3       12 UNK         0.0194 
     72 H72        23.2290   -5.9176    0.3689 H         1 UNK         0.0906 
     73 H73        22.4935   -4.6703   -0.6384 H         1 UNK         0.0906 
     74 H74        23.6150   -5.8309   -1.3516 H         1 UNK         0.0906 
     75 H75        25.7445   -5.1380   -1.5405 H         1 UNK         0.3140 
     76 H76        27.0366   -3.4694    0.4329 H         1 UNK         0.1085 
     77 H77        28.2335   -4.3068   -2.2572 H         1 UNK         0.0836 
     78 H78        28.0589   -5.4405   -0.9528 H         1 UNK         0.0836 
     79 H79        30.7558   -5.0509   -2.1467 H         1 UNK         0.0731 
     80 H80        31.8975   -4.0575   -1.2780 H         1 UNK         0.0731 
     81 H81        30.5718   -4.3509   -4.4168 H         1 UNK         0.1312 
     82 H82        30.8788   -0.2253   -5.5051 H         1 UNK         0.1406 
     83 H83        31.0818   -1.3680   -1.3782 H         1 UNK         0.1631 
     84 H84        32.1387    1.1515   -3.1318 H         1 UNK         0.0717 
     85 H85        30.9189    0.9379   -1.8994 H         1 UNK         0.0717 
     86 H86        28.4459    0.3730   -2.9763 H         1 UNK         0.0934 
     87 H87        27.6543    1.8908   -3.2543 H         1 UNK         0.0934 
     88 H88        28.7327    0.4791   -5.7073 H         1 UNK         0.0739 
     89 H89        27.0445   -0.9956   -4.0203 H         1 UNK         0.3093 
     90 H90        25.6102   -3.0601   -6.5736 H         1 UNK         0.0818 
     91 H91        27.7194   -4.1587   -6.0815 H         1 UNK         0.0819 
     92 H92        27.7382   -3.5641   -4.4316 H         1 UNK         0.0819 
     93 H93        26.5371   -4.7564   -4.9310 H         1 UNK         0.0819 
     94 H94        25.4480   -2.6278   -3.6648 H         1 UNK         0.3041 
     95 H95        22.4472   -0.7443   -3.8731 H         1 UNK         0.0784 
     96 H96        21.5034   -3.0343   -4.0918 H         1 UNK         0.0793 
     97 H97        22.7190   -3.6740   -2.9972 H         1 UNK         0.0793 
     98 H98        21.5026   -2.5382   -2.4081 H         1 UNK         0.0793 
     99 H99        23.8569   -1.8728   -1.6549 H         1 UNK         0.3024 
    100 H100       26.4260    0.5227   -1.3739 H         1 UNK         0.1171 
    101 H101       25.4678    0.8843    0.8867 H         1 UNK         0.0786 
    102 H102       24.4938    1.7132   -0.3159 H         1 UNK         0.0786 
    103 H103       23.9248    0.1993    0.3757 H         1 UNK         0.0786 
    104 H104       25.5806   -1.6532    0.2985 H         1 UNK         0.2977 
    105 H105       25.3426    0.6460   -5.6584 H         1 UNK         0.3127 
    106 H106       24.9347    3.2418   -6.7701 H         1 UNK         0.0770 
    107 H107       23.3977    0.6375   -7.2830 H         1 UNK         0.0814 
    108 H108       22.8170    2.2637   -7.6056 H         1 UNK         0.0814 
    109 H109       23.0912    1.7493   -5.9478 H         1 UNK         0.0814 
    110 H110       26.4262    0.3500   -8.1077 H         1 UNK         0.2983 
    111 H111       26.4698    1.4556  -10.8657 H         1 UNK         0.0947 
    112 H112       27.4849   -1.2327   -9.8074 H         1 UNK         0.0806 
    113 H113       27.3210   -0.7502  -11.4886 H         1 UNK         0.0806 
    114 H114       25.8854   -0.9825  -10.5071 H         1 UNK         0.0806 
    115 H115       27.9026    2.5407   -8.4025 H         1 UNK         0.3000 
    116 H116       29.6447    3.7988   -8.0220 H         1 UNK         0.0850 
    117 H117       31.4419    4.2473   -9.6257 H         1 UNK         0.0810 
    118 H118       29.9373    4.1690  -10.5217 H         1 UNK         0.0810 
    119 H119       31.0612    2.8111  -10.5585 H         1 UNK         0.0810 
    120 H120       31.9801    3.6911   -7.3655 H         1 UNK         0.3040 
    121 H121       32.5126    1.3388   -5.8200 H         1 UNK         0.0766 
    122 H122       33.1925    3.5947   -5.0659 H         1 UNK         0.0812 
    123 H123       34.2857    3.7603   -6.4422 H         1 UNK         0.0812 
    124 H124       34.5991    2.5541   -5.2019 H         1 UNK         0.0812 
    125 H125       33.5820    2.4366   -8.9761 H         1 UNK         0.3205 
    126 H126       35.2719    0.0218   -9.4344 H         1 UNK         0.0754 
    127 H127       35.7067    1.1163  -11.6400 H         1 UNK         0.0769 
    128 H128       36.1848    2.1597  -10.3102 H         1 UNK         0.0769 
    129 H129       34.6909    2.4790  -11.1883 H         1 UNK         0.0769 
    130 H130       33.4386   -1.2934   -8.9680 H         1 UNK         0.2981 
    131 H131       30.8936   -1.0947   -9.6042 H         1 UNK         0.0541 
    132 H132       30.0740   -1.5875  -12.9943 H         1 UNK         0.3459 
    133 H133       29.8757   -0.6254  -11.5418 H         1 UNK         0.3459 
    134 H134       30.6452   -3.5005   -9.1756 H         1 UNK         0.0612 
    135 H135       32.3181   -3.7970   -9.5682 H         1 UNK         0.0612 
    136 H136       29.9824   -3.6144   -6.6927 H         1 UNK         0.0624 
    137 H137       29.9305   -1.9076   -7.0837 H         1 UNK         0.0624 
@<TRIPOS>BOND
     1    1    2 1    
     2    1   72 1    
     3    1   73 1    
     4    1   74 1    
     5    2    3 2    
     6    2    4 am   BACKBONE|DICT|INTERRES
     7    4    5 1    
     8    4   75 1    
     9    5    6 1    
    10    5   35 1    
    11    5   76 1    
    12    6    7 1    
    13    6   77 1    
    14    6   78 1    
    15    7    8 1    
    16    8    9 1    
    17    8   79 1    
    18    8   80 1    
    19    9   10 ar   
    20    9   14 ar   
    21   10   11 ar   
    22   10   81 1    
    23   11   12 ar   
    24   11   71 1    
    25   12   13 ar   
    26   12   82 1    
    27   13   14 ar   
    28   13   15 1    
    29   14   83 1    
    30   15   16 1    
    31   15   84 1    
    32   15   85 1    
    33   16   17 1    
    34   17   18 1    
    35   17   86 1    
    36   17   87 1    
    37   18   19 1    
    38   18   37 1    
    39   18   88 1    
    40   19   20 am   BACKBONE|DICT|INTERRES
    41   19   89 1    
    42   20   21 2    
    43   20   22 1    
    44   22   23 1    
    45   22   24 1    
    46   22   90 1    
    47   23   91 1    
    48   23   92 1    
    49   23   93 1    
    50   24   25 am   BACKBONE|DICT|INTERRES
    51   24   94 1    
    52   25   26 2    
    53   25   27 1    
    54   27   28 1    
    55   27   29 1    
    56   27   95 1    
    57   28   96 1    
    58   28   97 1    
    59   28   98 1    
    60   29   30 am   BACKBONE|DICT|INTERRES
    61   29   99 1    
    62   30   31 2    
    63   30   32 1    
    64   32   33 1    
    65   32   34 1    
    66   32  100 1    
    67   33  101 1    
    68   33  102 1    
    69   33  103 1    
    70   34   35 am   BACKBONE|DICT|INTERRES
    71   34  104 1    
    72   35   36 2    
    73   37   38 2    
    74   37   39 am   BACKBONE|DICT|INTERRES
    75   39   40 1    
    76   39  105 1    
    77   40   41 1    
    78   40   42 1    
    79   40  106 1    
    80   41  107 1    
    81   41  108 1    
    82   41  109 1    
    83   42   43 2    
    84   42   44 am   BACKBONE|DICT|INTERRES
    85   44   45 1    
    86   44  110 1    
    87   45   46 1    
    88   45   47 1    
    89   45  111 1    
    90   46  112 1    
    91   46  113 1    
    92   46  114 1    
    93   47   48 2    
    94   47   49 am   BACKBONE|DICT|INTERRES
    95   49   50 1    
    96   49  115 1    
    97   50   51 1    
    98   50   52 1    
    99   50  116 1    
   100   51  117 1    
   101   51  118 1    
   102   51  119 1    
   103   52   53 2    
   104   52   54 am   BACKBONE|DICT|INTERRES
   105   54   55 1    
   106   54  120 1    
   107   55   56 1    
   108   55   57 1    
   109   55  121 1    
   110   56  122 1    
   111   56  123 1    
   112   56  124 1    
   113   57   58 2    
   114   57   59 am   BACKBONE|DICT|INTERRES
   115   59   60 1    
   116   59  125 1    
   117   60   61 1    
   118   60   62 1    
   119   60  126 1    
   120   61  127 1    
   121   61  128 1    
   122   61  129 1    
   123   62   63 2    
   124   62   64 am   BACKBONE|DICT|INTERRES
   125   64   65 1    
   126   64  130 1    
   127   65   66 1    
   128   65   69 1    
   129   65  131 1    
   130   66   67 am   BACKBONE|DICT|INTERRES
   131   66   68 2    
   132   67  132 1    
   133   67  133 1    
   134   69   70 1    
   135   69  134 1    
   136   69  135 1    
   137   70   71 1    
   138   71  136 1    
   139   71  137 1    
@<TRIPOS>SUBSTRUCTURE
     1 UNK         1 GROUP             0       ****    0 ROOT    
