@<TRIPOS>MOLECULE
3R137
137   139    1
SMALL
USER_CHARGES


@<TRIPOS>ATOM
      1 CA         26.3501   -2.5304    4.1268 C.3       0 UNK        -0.2020 
      2 C          26.4541   -1.6705    2.8759 C.2       0 UNK         0.4855 
      3 O          26.2918   -0.4521    2.9550 O.2       0 UNK        -0.5197 
      4 N          26.7335   -2.2926    1.7241 N.am      1 UNK        -0.4892 
      5 CA         26.8246   -1.6336    0.4162 C.3       1 UNK         0.0835 
      6 C6         27.5030   -2.5413   -0.6431 C.3       12 UNK        -0.0855 
      7 S7         29.1903   -3.0388   -0.1598 S.3       12 UNK        -0.2931 
      8 C8         30.2070   -1.8522   -1.1074 C.3       12 UNK         0.0378 
      9 C9         30.4528   -2.1876   -2.5821 C.ar      12 UNK        -0.0802 
     10 C10        31.3286   -1.3645   -3.2975 C.ar      12 UNK        -0.0944 
     11 C11        31.6238   -1.6225   -4.6382 C.ar      12 UNK        -0.0787 
     12 C12        31.0304   -2.7135   -5.2768 C.ar      12 UNK        -0.0862 
     13 C13        30.1514   -3.5473   -4.5820 C.ar      12 UNK        -0.0733 
     14 C14        29.8619   -3.2777   -3.2395 C.ar      12 UNK        -0.0832 
     15 C15        29.5524   -4.7697   -5.2624 C.3       12 UNK         0.0240 
     16 S16        27.9623   -4.4034   -6.0661 S.3       12 UNK        -0.2522 
     17 C17        28.4772   -3.7909   -7.7131 C.3       12 UNK        -0.0967 
     18 CA         27.8118   -2.4535   -8.1260 C.3       5 UNK         0.0660 
     19 N          26.3573   -2.4945   -7.9497 N.am      5 UNK        -0.4015 
     20 C          25.4896   -1.5886   -8.4173 C.2       4 UNK         0.4946 
     21 O          25.8125   -0.6232   -9.1057 O.2       4 UNK        -0.5353 
     22 CA         24.0175   -1.7556   -7.9983 C.3       4 UNK         0.0277 
     23 CB         23.2853   -2.6952   -8.9692 C.3       4 UNK        -0.1981 
     24 N          23.8379   -2.2303   -6.6196 N.am      4 UNK        -0.4209 
     25 C          24.3408   -1.6292   -5.5323 C.2       3 UNK         0.4942 
     26 O          25.0447   -0.6172   -5.5776 O.2       3 UNK        -0.5208 
     27 CA         24.0644   -2.3096   -4.1832 C.3       3 UNK         0.0250 
     28 CB         24.9204   -3.5785   -4.0307 C.3       3 UNK        -0.1990 
     29 N          24.3843   -1.4124   -3.0762 N.am      3 UNK        -0.4232 
     30 C          23.6013   -0.4326   -2.6089 C.2       2 UNK         0.4993 
     31 O          22.4558   -0.2246   -3.0133 O.2       2 UNK        -0.5286 
     32 CA         24.2090    0.4777   -1.5178 C.3       2 UNK         0.0209 
     33 CB         23.1563    0.9520   -0.4923 C.3       2 UNK        -0.1931 
     34 N          25.3887   -0.0931   -0.8408 N.am      2 UNK        -0.4546 
     35 C          25.4300   -1.1989   -0.0795 C.2       1 UNK         0.5154 
     36 O          24.4460   -1.8972    0.1784 O.2       1 UNK        -0.5181 
     37 C          28.4733   -1.2412   -7.4367 C.2       5 UNK         0.5014 
     38 O          29.4223   -0.6799   -7.9886 O.2       5 UNK        -0.5248 
     39 N          27.9549   -0.8411   -6.2673 N.am      6 UNK        -0.4434 
     40 CA         28.4041    0.3416   -5.5349 C.3       6 UNK         0.0363 
     41 CB         27.9625    0.2488   -4.0647 C.3       6 UNK        -0.1936 
     42 C          27.8760    1.6254   -6.1896 C.2       6 UNK         0.5081 
     43 O          28.6359    2.5803   -6.3423 O.2       6 UNK        -0.5248 
     44 N          26.5988    1.6107   -6.5991 N.am      7 UNK        -0.4718 
     45 CA         25.9234    2.7124   -7.2916 C.3       7 UNK         0.0273 
     46 CB         24.4252    2.3960   -7.4196 C.3       7 UNK        -0.1935 
     47 C          26.5365    3.0280   -8.6673 C.2       7 UNK         0.5018 
     48 O          26.7179    4.2016   -8.9931 O.2       7 UNK        -0.5186 
     49 N          26.8755    1.9808   -9.4326 N.am      8 UNK        -0.4240 
     50 CA         27.5837    2.0752  -10.7131 C.3       8 UNK         0.0235 
     51 CB         27.3865    0.7650  -11.4942 C.3       8 UNK        -0.2000 
     52 C          29.0865    2.3778  -10.5649 C.2       8 UNK         0.4941 
     53 O          29.7227    2.7058  -11.5672 O.2       8 UNK        -0.5273 
     54 N          29.6241    2.2469   -9.3417 N.am      9 UNK        -0.4262 
     55 CA         31.0311    2.3973   -8.9599 C.3       9 UNK         0.0264 
     56 CB         31.4941    3.8613   -9.1156 C.3       9 UNK        -0.1955 
     57 C          31.9408    1.3912   -9.6880 C.2       9 UNK         0.5031 
     58 O          32.9666    1.7758  -10.2546 O.2       9 UNK        -0.5390 
     59 N          31.5603    0.1052   -9.6349 N.am      10 UNK        -0.4204 
     60 CA         32.2711   -1.0228  -10.2555 C.3       10 UNK         0.0237 
     61 CB         31.4428   -2.3035  -10.0630 C.3       10 UNK        -0.1985 
     62 C          33.7067   -1.2307   -9.7340 C.2       10 UNK         0.4970 
     63 O          34.5197   -1.8482  -10.4226 O.2       10 UNK        -0.4914 
     64 N          33.9873   -0.6965   -8.5409 N.am      11 UNK        -0.4285 
     65 CA         35.3134   -0.6097   -7.9194 C.3       11 UNK         0.1007 
     66 C          36.2865    0.3805   -8.6264 C.2       11 UNK         0.5703 
     67 N          35.8271    1.2656   -9.5054 N.am      11 UNK        -0.7361 
     68 O          37.4881    0.3389   -8.3733 O.2       11 UNK        -0.4986 
     69 C69        35.1941   -0.2748   -6.4090 C.3       12 UNK        -0.0947 
     70 S70        34.2408   -1.5212   -5.4795 S.3       12 UNK        -0.2240 
     71 C71        32.6001   -0.7373   -5.3933 C.3       12 UNK         0.0194 
     72 H72        27.0835   -2.2084    4.8657 H         1 UNK         0.0906 
     73 H73        25.3578   -2.4338    4.5666 H         1 UNK         0.0906 
     74 H74        26.5250   -3.5847    3.9131 H         1 UNK         0.0906 
     75 H75        26.8517   -3.2956    1.7133 H         1 UNK         0.3140 
     76 H76        27.4342   -0.7356    0.5419 H         1 UNK         0.1085 
     77 H77        26.9169   -3.4493   -0.8005 H         1 UNK         0.0836 
     78 H78        27.5474   -2.0428   -1.6131 H         1 UNK         0.0836 
     79 H79        31.1752   -1.7845   -0.6089 H         1 UNK         0.0731 
     80 H80        29.7584   -0.8603   -1.0348 H         1 UNK         0.0731 
     81 H81        31.7963   -0.5242   -2.8023 H         1 UNK         0.1312 
     82 H82        31.2717   -2.9209   -6.3098 H         1 UNK         0.1406 
     83 H83        29.1863   -3.9364   -2.7134 H         1 UNK         0.1631 
     84 H84        29.3896   -5.5549   -4.5226 H         1 UNK         0.0717 
     85 H85        30.2516   -5.1877   -5.9882 H         1 UNK         0.0717 
     86 H86        29.5638   -3.7171   -7.7707 H         1 UNK         0.0934 
     87 H87        28.2080   -4.5598   -8.4389 H         1 UNK         0.0934 
     88 H88        27.9913   -2.3213   -9.1954 H         1 UNK         0.0739 
     89 H89        26.0076   -3.2519   -7.3810 H         1 UNK         0.3093 
     90 H90        23.5492   -0.7719   -8.0628 H         1 UNK         0.0818 
     91 H91        22.2175   -2.7364   -8.7534 H         1 UNK         0.0819 
     92 H92        23.3913   -2.3506   -9.9990 H         1 UNK         0.0819 
     93 H93        23.6774   -3.7120   -8.9240 H         1 UNK         0.0819 
     94 H94        23.2774   -3.0619   -6.4980 H         1 UNK         0.3041 
     95 H95        23.0071   -2.5791   -4.1362 H         1 UNK         0.0784 
     96 H96        24.7229   -4.2944   -4.8296 H         1 UNK         0.0793 
     97 H97        25.9869   -3.3508   -4.0517 H         1 UNK         0.0793 
     98 H98        24.7089   -4.0850   -3.0886 H         1 UNK         0.0793 
     99 H99        25.3189   -1.4765   -2.7071 H         1 UNK         0.3024 
    100 H100       24.5649    1.3624   -2.0489 H         1 UNK         0.1171 
    101 H101       22.3609    1.5172   -0.9798 H         1 UNK         0.0786 
    102 H102       23.6000    1.6048    0.2594 H         1 UNK         0.0786 
    103 H103       22.6866    0.1149    0.0250 H         1 UNK         0.0786 
    104 H104       26.2518    0.4115   -0.9925 H         1 UNK         0.2977 
    105 H105       27.1299   -1.3059   -5.9138 H         1 UNK         0.3127 
    106 H106       29.4958    0.3687   -5.5589 H         1 UNK         0.0770 
    107 H107       26.8801    0.3146   -3.9556 H         1 UNK         0.0814 
    108 H108       28.3978    1.0601   -3.4803 H         1 UNK         0.0814 
    109 H109       28.2883   -0.6874   -3.6147 H         1 UNK         0.0814 
    110 H110       26.0390    0.7867   -6.3908 H         1 UNK         0.2983 
    111 H111       26.0317    3.6045   -6.6709 H         1 UNK         0.0947 
    112 H112       23.8875    3.2318   -7.8691 H         1 UNK         0.0806 
    113 H113       23.9742    2.2042   -6.4456 H         1 UNK         0.0806 
    114 H114       24.2510    1.5219   -8.0468 H         1 UNK         0.0806 
    115 H115       26.6129    1.0440   -9.1291 H         1 UNK         0.3000 
    116 H116       27.1422    2.8891  -11.2921 H         1 UNK         0.0850 
    117 H117       27.8577    0.8180  -12.4766 H         1 UNK         0.0810 
    118 H118       26.3290    0.5530  -11.6534 H         1 UNK         0.0810 
    119 H119       27.8229   -0.0852  -10.9679 H         1 UNK         0.0810 
    120 H120       29.0040    1.9791   -8.5885 H         1 UNK         0.3040 
    121 H121       31.0855    2.1476   -7.8990 H         1 UNK         0.0766 
    122 H122       32.5047    3.9934   -8.7274 H         1 UNK         0.0812 
    123 H123       30.8438    4.5416   -8.5657 H         1 UNK         0.0812 
    124 H124       31.5044    4.1762  -10.1595 H         1 UNK         0.0812 
    125 H125       30.7169   -0.1280   -9.1082 H         1 UNK         0.3205 
    126 H126       32.3424   -0.8145  -11.3249 H         1 UNK         0.0754 
    127 H127       31.9110   -3.1523  -10.5633 H         1 UNK         0.0769 
    128 H128       30.4403   -2.1954  -10.4777 H         1 UNK         0.0769 
    129 H129       31.3448   -2.5596   -9.0077 H         1 UNK         0.0769 
    130 H130       33.2481   -0.2079   -8.0634 H         1 UNK         0.2981 
    131 H131       35.7737   -1.5957   -8.0065 H         1 UNK         0.0541 
    132 H132       34.8390    1.3257   -9.7298 H         1 UNK         0.3459 
    133 H133       36.4769    1.8925   -9.9520 H         1 UNK         0.3459 
    134 H134       34.7478    0.7108   -6.2641 H         1 UNK         0.0612 
    135 H135       36.1845   -0.2274   -5.9524 H         1 UNK         0.0612 
    136 H136       32.6870    0.2366   -4.9090 H         1 UNK         0.0624 
    137 H137       32.2172   -0.5535   -6.3974 H         1 UNK         0.0624 
@<TRIPOS>BOND
     1    1    2 1    
     2    1   72 1    
     3    1   73 1    
     4    1   74 1    
     5    2    3 2    
     6    2    4 am   BACKBONE|DICT|INTERRES
     7    4    5 1    
     8    4   75 1    
     9    5    6 1    
    10    5   35 1    
    11    5   76 1    
    12    6    7 1    
    13    6   77 1    
    14    6   78 1    
    15    7    8 1    
    16    8    9 1    
    17    8   79 1    
    18    8   80 1    
    19    9   10 ar   
    20    9   14 ar   
    21   10   11 ar   
    22   10   81 1    
    23   11   12 ar   
    24   11   71 1    
    25   12   13 ar   
    26   12   82 1    
    27   13   14 ar   
    28   13   15 1    
    29   14   83 1    
    30   15   16 1    
    31   15   84 1    
    32   15   85 1    
    33   16   17 1    
    34   17   18 1    
    35   17   86 1    
    36   17   87 1    
    37   18   19 1    
    38   18   37 1    
    39   18   88 1    
    40   19   20 am   BACKBONE|DICT|INTERRES
    41   19   89 1    
    42   20   21 2    
    43   20   22 1    
    44   22   23 1    
    45   22   24 1    
    46   22   90 1    
    47   23   91 1    
    48   23   92 1    
    49   23   93 1    
    50   24   25 am   BACKBONE|DICT|INTERRES
    51   24   94 1    
    52   25   26 2    
    53   25   27 1    
    54   27   28 1    
    55   27   29 1    
    56   27   95 1    
    57   28   96 1    
    58   28   97 1    
    59   28   98 1    
    60   29   30 am   BACKBONE|DICT|INTERRES
    61   29   99 1    
    62   30   31 2    
    63   30   32 1    
    64   32   33 1    
    65   32   34 1    
    66   32  100 1    
    67   33  101 1    
    68   33  102 1    
    69   33  103 1    
    70   34   35 am   BACKBONE|DICT|INTERRES
    71   34  104 1    
    72   35   36 2    
    73   37   38 2    
    74   37   39 am   BACKBONE|DICT|INTERRES
    75   39   40 1    
    76   39  105 1    
    77   40   41 1    
    78   40   42 1    
    79   40  106 1    
    80   41  107 1    
    81   41  108 1    
    82   41  109 1    
    83   42   43 2    
    84   42   44 am   BACKBONE|DICT|INTERRES
    85   44   45 1    
    86   44  110 1    
    87   45   46 1    
    88   45   47 1    
    89   45  111 1    
    90   46  112 1    
    91   46  113 1    
    92   46  114 1    
    93   47   48 2    
    94   47   49 am   BACKBONE|DICT|INTERRES
    95   49   50 1    
    96   49  115 1    
    97   50   51 1    
    98   50   52 1    
    99   50  116 1    
   100   51  117 1    
   101   51  118 1    
   102   51  119 1    
   103   52   53 2    
   104   52   54 am   BACKBONE|DICT|INTERRES
   105   54   55 1    
   106   54  120 1    
   107   55   56 1    
   108   55   57 1    
   109   55  121 1    
   110   56  122 1    
   111   56  123 1    
   112   56  124 1    
   113   57   58 2    
   114   57   59 am   BACKBONE|DICT|INTERRES
   115   59   60 1    
   116   59  125 1    
   117   60   61 1    
   118   60   62 1    
   119   60  126 1    
   120   61  127 1    
   121   61  128 1    
   122   61  129 1    
   123   62   63 2    
   124   62   64 am   BACKBONE|DICT|INTERRES
   125   64   65 1    
   126   64  130 1    
   127   65   66 1    
   128   65   69 1    
   129   65  131 1    
   130   66   67 am   BACKBONE|DICT|INTERRES
   131   66   68 2    
   132   67  132 1    
   133   67  133 1    
   134   69   70 1    
   135   69  134 1    
   136   69  135 1    
   137   70   71 1    
   138   71  136 1    
   139   71  137 1    
@<TRIPOS>SUBSTRUCTURE
     1 UNK         1 GROUP             0       ****    0 ROOT    
