@<TRIPOS>MOLECULE
3R137
137   139    1
SMALL
USER_CHARGES


@<TRIPOS>ATOM
      1 CA         29.3763    0.1200    2.2778 C.3       0 UNK        -0.2020 
      2 C          28.7389   -1.0802    1.5923 C.2       0 UNK         0.4855 
      3 O          27.9512   -1.7867    2.2228 O.2       0 UNK        -0.5197 
      4 N          29.0871   -1.3043    0.3162 N.am      1 UNK        -0.4892 
      5 CA         28.5995   -2.3678   -0.5806 C.3       1 UNK         0.0835 
      6 C6         28.7817   -3.8121   -0.0200 C.3       12 UNK        -0.0855 
      7 S7         30.4727   -4.1686    0.5760 S.3       12 UNK        -0.2931 
      8 C8         31.1895   -5.0920   -0.8217 C.3       12 UNK         0.0378 
      9 C9         31.3099   -4.2358   -2.0747 C.ar      12 UNK        -0.0802 
     10 C10        32.0926   -3.0755   -2.0597 C.ar      12 UNK        -0.0944 
     11 C11        32.1965   -2.2739   -3.1992 C.ar      12 UNK        -0.0787 
     12 C12        31.5267   -2.6556   -4.3620 C.ar      12 UNK        -0.0862 
     13 C13        30.7591   -3.8218   -4.4021 C.ar      12 UNK        -0.0733 
     14 C14        30.6475   -4.6065   -3.2506 C.ar      12 UNK        -0.0832 
     15 C15        30.0731   -4.2409   -5.6964 C.3       12 UNK         0.0240 
     16 S16        28.3341   -3.7070   -5.7565 S.3       12 UNK        -0.2522 
     17 C17        28.5032   -1.8945   -5.8662 C.3       12 UNK        -0.0967 
     18 CA         27.6653   -1.2590   -7.0012 C.3       5 UNK         0.0660 
     19 N          26.2430   -1.6058   -6.9356 N.am      5 UNK        -0.4015 
     20 C          25.3466   -1.3379   -7.8971 C.2       4 UNK         0.4946 
     21 O          25.6280   -0.7979   -8.9668 O.2       4 UNK        -0.5353 
     22 CA         23.8792   -1.6925   -7.6008 C.3       4 UNK         0.0277 
     23 CB         23.6070   -3.1721   -7.9157 C.3       4 UNK        -0.1981 
     24 N          23.4925   -1.4043   -6.2177 N.am      4 UNK        -0.4209 
     25 C          23.4728   -0.1788   -5.6725 C.2       3 UNK         0.4942 
     26 O          23.7084    0.8521   -6.2994 O.2       3 UNK        -0.5208 
     27 CA         23.2002   -0.0901   -4.1612 C.3       3 UNK         0.0250 
     28 CB         21.6946    0.0610   -3.8930 C.3       3 UNK        -0.1990 
     29 N          23.7245   -1.2325   -3.4042 N.am      3 UNK        -0.4232 
     30 C          25.0171   -1.5838   -3.3495 C.2       2 UNK         0.4993 
     31 O          25.9162   -0.9832   -3.9446 O.2       2 UNK        -0.5286 
     32 CA         25.3319   -2.8684   -2.5655 C.3       2 UNK         0.0209 
     33 CB         25.1113   -4.1032   -3.4558 C.3       2 UNK        -0.1931 
     34 N          26.7009   -2.8967   -2.0442 N.am      2 UNK        -0.4546 
     35 C          27.1409   -2.1258   -1.0400 C.2       1 UNK         0.5154 
     36 O          26.4321   -1.2800   -0.4863 O.2       1 UNK        -0.5181 
     37 C          27.8549    0.2671   -6.9919 C.2       5 UNK         0.5014 
     38 O          28.6294    0.7868   -7.7962 O.2       5 UNK        -0.5248 
     39 N          27.1214    0.9505   -6.0998 N.am      6 UNK        -0.4434 
     40 CA         27.0975    2.4091   -5.9838 C.3       6 UNK         0.0363 
     41 CB         26.3034    2.8178   -4.7331 C.3       6 UNK        -0.1936 
     42 C          26.5391    3.0963   -7.2415 C.2       6 UNK         0.5081 
     43 O          27.1284    4.0739   -7.7007 O.2       6 UNK        -0.5248 
     44 N          25.4429    2.5580   -7.7959 N.am      7 UNK        -0.4718 
     45 CA         24.8166    3.0250   -9.0369 C.3       7 UNK         0.0273 
     46 CB         23.4713    2.3102   -9.2396 C.3       7 UNK        -0.1935 
     47 C          25.7162    2.8451  -10.2707 C.2       7 UNK         0.5018 
     48 O          25.7730    3.7431  -11.1116 O.2       7 UNK        -0.5186 
     49 N          26.4204    1.7067  -10.3458 N.am      8 UNK        -0.4240 
     50 CA         27.4181    1.4186  -11.3803 C.3       8 UNK         0.0235 
     51 CB         27.7159   -0.0903  -11.3815 C.3       8 UNK        -0.2000 
     52 C          28.7278    2.2115  -11.2106 C.2       8 UNK         0.4941 
     53 O          29.4860    2.3153  -12.1757 O.2       8 UNK        -0.5273 
     54 N          28.9808    2.7185   -9.9934 N.am      9 UNK        -0.4262 
     55 CA         30.2269    3.3264   -9.5116 C.3       9 UNK         0.0264 
     56 CB         30.5104    4.6631  -10.2291 C.3       9 UNK        -0.1955 
     57 C          31.4032    2.3317   -9.5770 C.2       9 UNK         0.5031 
     58 O          32.4989    2.6915  -10.0140 O.2       9 UNK        -0.5390 
     59 N          31.1346    1.0866   -9.1669 N.am      10 UNK        -0.4204 
     60 CA         32.0538   -0.0458   -9.2349 C.3       10 UNK         0.0237 
     61 CB         31.3130   -1.2284   -9.8826 C.3       10 UNK        -0.1985 
     62 C          32.5256   -0.4322   -7.8292 C.2       10 UNK         0.4970 
     63 O          31.7749   -0.2612   -6.8679 O.2       10 UNK        -0.4914 
     64 N          33.7384   -0.9902   -7.7539 N.am      11 UNK        -0.4285 
     65 CA         34.3590   -1.5858   -6.5599 C.3       11 UNK         0.1007 
     66 C          35.5512   -2.5116   -6.9455 C.2       11 UNK         0.5703 
     67 N          35.4987   -3.1906   -8.0870 N.am      11 UNK        -0.7361 
     68 O          36.5404   -2.6190   -6.2251 O.2       11 UNK        -0.4986 
     69 C69        34.6772   -0.5393   -5.4492 C.3       12 UNK        -0.0947 
     70 S70        34.7145   -1.2548   -3.7661 S.3       12 UNK        -0.2240 
     71 C71        33.0133   -0.9894   -3.1691 C.3       12 UNK         0.0194 
     72 H72        29.9349   -0.2032    3.1559 H         1 UNK         0.0906 
     73 H73        28.6059    0.8190    2.6023 H         1 UNK         0.0906 
     74 H74        30.0614    0.6530    1.6187 H         1 UNK         0.0906 
     75 H75        29.7287   -0.6582   -0.1213 H         1 UNK         0.3140 
     76 H76        29.2107   -2.2841   -1.4808 H         1 UNK         0.1085 
     77 H77        28.5192   -4.5547   -0.7753 H         1 UNK         0.0836 
     78 H78        28.0955   -3.9888    0.8099 H         1 UNK         0.0836 
     79 H79        32.1824   -5.4440   -0.5387 H         1 UNK         0.0731 
     80 H80        30.5895   -5.9842   -1.0081 H         1 UNK         0.0731 
     81 H81        32.6078   -2.7898   -1.1525 H         1 UNK         0.1312 
     82 H82        31.6081   -2.0409   -5.2418 H         1 UNK         0.1406 
     83 H83        30.0498   -5.5078   -3.2755 H         1 UNK         0.1631 
     84 H84        30.1095   -5.3269   -5.7939 H         1 UNK         0.0717 
     85 H85        30.6061   -3.8421   -6.5613 H         1 UNK         0.0717 
     86 H86        28.2458   -1.4762   -4.8921 H         1 UNK         0.0934 
     87 H87        29.5502   -1.6411   -6.0284 H         1 UNK         0.0934 
     88 H88        28.0486   -1.6316   -7.9537 H         1 UNK         0.0739 
     89 H89        25.9277   -2.0021   -6.0619 H         1 UNK         0.3093 
     90 H90        23.2536   -1.0823   -8.2557 H         1 UNK         0.0818 
     91 H91        23.8717   -3.4045   -8.9483 H         1 UNK         0.0819 
     92 H92        24.1852   -3.8380   -7.2737 H         1 UNK         0.0819 
     93 H93        22.5520   -3.4169   -7.7915 H         1 UNK         0.0819 
     94 H94        23.2679   -2.1930   -5.6297 H         1 UNK         0.3041 
     95 H95        23.7043    0.8054   -3.7920 H         1 UNK         0.0784 
     96 H96        21.2877    0.9188   -4.4308 H         1 UNK         0.0793 
     97 H97        21.1349   -0.8191   -4.2125 H         1 UNK         0.0793 
     98 H98        21.4938    0.2217   -2.8336 H         1 UNK         0.0793 
     99 H99        23.0468   -1.7840   -2.8969 H         1 UNK         0.3024 
    100 H100       24.6499   -2.9256   -1.7136 H         1 UNK         0.1171 
    101 H101       25.7559   -4.0902   -4.3346 H         1 UNK         0.0786 
    102 H102       25.3089   -5.0263   -2.9103 H         1 UNK         0.0786 
    103 H103       24.0810   -4.1563   -3.8097 H         1 UNK         0.0786 
    104 H104       27.3414   -3.5309   -2.4987 H         1 UNK         0.2977 
    105 H105       26.5339    0.4269   -5.4593 H         1 UNK         0.3127 
    106 H106       28.1292    2.7437   -5.8548 H         1 UNK         0.0770 
    107 H107       26.3247    3.8997   -4.5965 H         1 UNK         0.0814 
    108 H108       25.2571    2.5200   -4.8016 H         1 UNK         0.0814 
    109 H109       26.7214    2.3682   -3.8321 H         1 UNK         0.0814 
    110 H110       24.9752    1.7943   -7.3114 H         1 UNK         0.2983 
    111 H111       24.6213    4.0940   -8.9266 H         1 UNK         0.0947 
    112 H112       22.9784    2.6535  -10.1501 H         1 UNK         0.0806 
    113 H113       22.7911    2.5038   -8.4100 H         1 UNK         0.0806 
    114 H114       23.5975    1.2301   -9.3224 H         1 UNK         0.0806 
    115 H115       26.2604    0.9822   -9.6509 H         1 UNK         0.3000 
    116 H116       26.9952    1.6864  -12.3509 H         1 UNK         0.0850 
    117 H117       28.4383   -0.3481  -12.1571 H         1 UNK         0.0810 
    118 H118       26.8140   -0.6725  -11.5716 H         1 UNK         0.0810 
    119 H119       28.1300   -0.4181  -10.4270 H         1 UNK         0.0810 
    120 H120       28.2954    2.5341   -9.2713 H         1 UNK         0.3040 
    121 H121       30.0685    3.5448   -8.4544 H         1 UNK         0.0766 
    122 H122       31.3676    5.1694   -9.7839 H         1 UNK         0.0812 
    123 H123       29.6590    5.3396  -10.1539 H         1 UNK         0.0812 
    124 H124       30.7327    4.5185  -11.2867 H         1 UNK         0.0812 
    125 H125       30.2370    0.9101   -8.7159 H         1 UNK         0.3205 
    126 H126       32.9226    0.2037   -9.8478 H         1 UNK         0.0754 
    127 H127       31.9636   -2.0988   -9.9762 H         1 UNK         0.0769 
    128 H128       30.9656   -0.9746  -10.8846 H         1 UNK         0.0769 
    129 H129       30.4439   -1.5303   -9.2957 H         1 UNK         0.0769 
    130 H130       34.2937   -1.0687   -8.5946 H         1 UNK         0.2981 
    131 H131       33.6214   -2.2787   -6.1589 H         1 UNK         0.0541 
    132 H132       36.2768   -3.7826   -8.3333 H         1 UNK         0.3459 
    133 H133       34.6771   -3.1811   -8.6696 H         1 UNK         0.3459 
    134 H134       33.9512    0.2733   -5.4521 H         1 UNK         0.0612 
    135 H135       35.6373   -0.0587   -5.6439 H         1 UNK         0.0612 
    136 H136       32.5141   -0.2154   -3.7537 H         1 UNK         0.0624 
    137 H137       33.0625   -0.6076   -2.1482 H         1 UNK         0.0624 
@<TRIPOS>BOND
     1    1    2 1    
     2    1   72 1    
     3    1   73 1    
     4    1   74 1    
     5    2    3 2    
     6    2    4 am   BACKBONE|DICT|INTERRES
     7    4    5 1    
     8    4   75 1    
     9    5    6 1    
    10    5   35 1    
    11    5   76 1    
    12    6    7 1    
    13    6   77 1    
    14    6   78 1    
    15    7    8 1    
    16    8    9 1    
    17    8   79 1    
    18    8   80 1    
    19    9   10 ar   
    20    9   14 ar   
    21   10   11 ar   
    22   10   81 1    
    23   11   12 ar   
    24   11   71 1    
    25   12   13 ar   
    26   12   82 1    
    27   13   14 ar   
    28   13   15 1    
    29   14   83 1    
    30   15   16 1    
    31   15   84 1    
    32   15   85 1    
    33   16   17 1    
    34   17   18 1    
    35   17   86 1    
    36   17   87 1    
    37   18   19 1    
    38   18   37 1    
    39   18   88 1    
    40   19   20 am   BACKBONE|DICT|INTERRES
    41   19   89 1    
    42   20   21 2    
    43   20   22 1    
    44   22   23 1    
    45   22   24 1    
    46   22   90 1    
    47   23   91 1    
    48   23   92 1    
    49   23   93 1    
    50   24   25 am   BACKBONE|DICT|INTERRES
    51   24   94 1    
    52   25   26 2    
    53   25   27 1    
    54   27   28 1    
    55   27   29 1    
    56   27   95 1    
    57   28   96 1    
    58   28   97 1    
    59   28   98 1    
    60   29   30 am   BACKBONE|DICT|INTERRES
    61   29   99 1    
    62   30   31 2    
    63   30   32 1    
    64   32   33 1    
    65   32   34 1    
    66   32  100 1    
    67   33  101 1    
    68   33  102 1    
    69   33  103 1    
    70   34   35 am   BACKBONE|DICT|INTERRES
    71   34  104 1    
    72   35   36 2    
    73   37   38 2    
    74   37   39 am   BACKBONE|DICT|INTERRES
    75   39   40 1    
    76   39  105 1    
    77   40   41 1    
    78   40   42 1    
    79   40  106 1    
    80   41  107 1    
    81   41  108 1    
    82   41  109 1    
    83   42   43 2    
    84   42   44 am   BACKBONE|DICT|INTERRES
    85   44   45 1    
    86   44  110 1    
    87   45   46 1    
    88   45   47 1    
    89   45  111 1    
    90   46  112 1    
    91   46  113 1    
    92   46  114 1    
    93   47   48 2    
    94   47   49 am   BACKBONE|DICT|INTERRES
    95   49   50 1    
    96   49  115 1    
    97   50   51 1    
    98   50   52 1    
    99   50  116 1    
   100   51  117 1    
   101   51  118 1    
   102   51  119 1    
   103   52   53 2    
   104   52   54 am   BACKBONE|DICT|INTERRES
   105   54   55 1    
   106   54  120 1    
   107   55   56 1    
   108   55   57 1    
   109   55  121 1    
   110   56  122 1    
   111   56  123 1    
   112   56  124 1    
   113   57   58 2    
   114   57   59 am   BACKBONE|DICT|INTERRES
   115   59   60 1    
   116   59  125 1    
   117   60   61 1    
   118   60   62 1    
   119   60  126 1    
   120   61  127 1    
   121   61  128 1    
   122   61  129 1    
   123   62   63 2    
   124   62   64 am   BACKBONE|DICT|INTERRES
   125   64   65 1    
   126   64  130 1    
   127   65   66 1    
   128   65   69 1    
   129   65  131 1    
   130   66   67 am   BACKBONE|DICT|INTERRES
   131   66   68 2    
   132   67  132 1    
   133   67  133 1    
   134   69   70 1    
   135   69  134 1    
   136   69  135 1    
   137   70   71 1    
   138   71  136 1    
   139   71  137 1    
@<TRIPOS>SUBSTRUCTURE
     1 UNK         1 GROUP             0       ****    0 ROOT    
