@<TRIPOS>MOLECULE
3R137
137   139    1
SMALL
USER_CHARGES


@<TRIPOS>ATOM
      1 CA         26.8944   -6.7923   -2.3077 C.3       0 UNK        -0.2020 
      2 C          26.8193   -5.7879   -1.1677 C.2       0 UNK         0.4855 
      3 O          26.1060   -6.0196   -0.1918 O.2       0 UNK        -0.5197 
      4 N          27.5444   -4.6687   -1.2874 N.am      1 UNK        -0.4892 
      5 CA         27.5849   -3.5842   -0.2960 C.3       1 UNK         0.0835 
      6 C6         28.8954   -2.7685   -0.4115 C.3       12 UNK        -0.0855 
      7 S7         30.3848   -3.6970    0.1099 S.3       12 UNK        -0.2931 
      8 C8         30.9068   -4.6397   -1.3698 C.3       12 UNK         0.0378 
      9 C9         30.8144   -3.8543   -2.6726 C.ar      12 UNK        -0.0802 
     10 C10        31.4012   -2.5884   -2.7877 C.ar      12 UNK        -0.0944 
     11 C11        31.2522   -1.8387   -3.9576 C.ar      12 UNK        -0.0787 
     12 C12        30.5187   -2.3766   -5.0198 C.ar      12 UNK        -0.0862 
     13 C13        29.9714   -3.6590   -4.9404 C.ar      12 UNK        -0.0733 
     14 C14        30.1268   -4.3959   -3.7639 C.ar      12 UNK        -0.0832 
     15 C15        29.2390   -4.2502   -6.1388 C.3       12 UNK         0.0240 
     16 S16        27.4986   -4.6722   -5.7964 S.3       12 UNK        -0.2522 
     17 C17        26.7910   -3.0948   -5.2225 C.3       12 UNK        -0.0967 
     18 CA         26.4508   -2.1031   -6.3714 C.3       5 UNK         0.0660 
     19 N          25.1689   -1.4280   -6.1527 N.am      5 UNK        -0.4015 
     20 C          24.5232   -0.6819   -7.0612 C.2       4 UNK         0.4946 
     21 O          24.9069   -0.5288   -8.2198 O.2       4 UNK        -0.5353 
     22 CA         23.2559    0.0520   -6.5872 C.3       4 UNK         0.0277 
     23 CB         22.0176   -0.8395   -6.7708 C.3       4 UNK        -0.1981 
     24 N          23.3392    0.4943   -5.1923 N.am      4 UNK        -0.4209 
     25 C          24.1994    1.4189   -4.7395 C.2       3 UNK         0.4942 
     26 O          24.9642    2.0521   -5.4641 O.2       3 UNK        -0.5208 
     27 CA         24.2624    1.6252   -3.2158 C.3       3 UNK         0.0250 
     28 CB         23.2390    2.6816   -2.7704 C.3       3 UNK        -0.1990 
     29 N          24.0611    0.3874   -2.4522 N.am      3 UNK        -0.4232 
     30 C          24.8462   -0.6952   -2.5401 C.2       2 UNK         0.4993 
     31 O          25.8312   -0.7684   -3.2814 O.2       2 UNK        -0.5286 
     32 CA         24.4016   -1.9268   -1.7389 C.3       2 UNK         0.0209 
     33 CB         23.3622   -2.7333   -2.5364 C.3       2 UNK        -0.1931 
     34 N          25.5435   -2.7915   -1.4454 N.am      2 UNK        -0.4546 
     35 C          26.3583   -2.6467   -0.3920 C.2       1 UNK         0.5154 
     36 O          26.1744   -1.8060    0.4904 O.2       1 UNK        -0.5181 
     37 C          27.5670   -1.0611   -6.5640 C.2       5 UNK         0.5014 
     38 O          28.3055   -1.1263   -7.5473 O.2       5 UNK        -0.5248 
     39 N          27.6351   -0.0966   -5.6345 N.am      6 UNK        -0.4434 
     40 CA         28.5899    1.0135   -5.6498 C.3       6 UNK         0.0363 
     41 CB         28.4966    1.7781   -4.3205 C.3       6 UNK        -0.1936 
     42 C          28.4221    1.9689   -6.8448 C.2       6 UNK         0.5081 
     43 O          29.4077    2.5687   -7.2699 O.2       6 UNK        -0.5248 
     44 N          27.1936    2.0994   -7.3624 N.am      7 UNK        -0.4718 
     45 CA         26.8879    2.8439   -8.5841 C.3       7 UNK         0.0273 
     46 CB         25.3889    3.1827   -8.6166 C.3       7 UNK        -0.1935 
     47 C          27.2971    2.0822   -9.8567 C.2       7 UNK         0.5018 
     48 O          27.7614    2.7132  -10.8072 O.2       7 UNK        -0.5186 
     49 N          27.0943    0.7564   -9.8685 N.am      8 UNK        -0.4240 
     50 CA         27.4110   -0.1194  -10.9985 C.3       8 UNK         0.0235 
     51 CB         26.6718   -1.4586  -10.8401 C.3       8 UNK        -0.2000 
     52 C          28.9200   -0.3511  -11.1721 C.2       8 UNK         0.4941 
     53 O          29.4188   -0.2599  -12.2954 O.2       8 UNK        -0.5273 
     54 N          29.6132   -0.6670  -10.0715 N.am      9 UNK        -0.4262 
     55 CA         31.0579   -0.8995  -10.0437 C.3       9 UNK         0.0264 
     56 CB         31.3936   -1.7441   -8.8066 C.3       9 UNK        -0.1955 
     57 C          31.8443    0.4206  -10.0143 C.2       9 UNK         0.5031 
     58 O          31.3115    1.4560   -9.6120 O.2       9 UNK        -0.5390 
     59 N          33.1302    0.3553  -10.3798 N.am      10 UNK        -0.4204 
     60 CA         34.0713    1.4814  -10.3549 C.3       10 UNK         0.0237 
     61 CB         35.1777    1.2272  -11.3972 C.3       10 UNK        -0.1985 
     62 C          34.6350    1.7519   -8.9418 C.2       10 UNK         0.4970 
     63 O          35.8502    1.8832   -8.7807 O.2       10 UNK        -0.4914 
     64 N          33.7508    1.8113   -7.9399 N.am      11 UNK        -0.4285 
     65 CA         34.0800    2.1175   -6.5404 C.3       11 UNK         0.1007 
     66 C          34.4058    3.6213   -6.3290 C.2       11 UNK         0.5703 
     67 N          35.2060    3.9437   -5.3217 N.am      11 UNK        -0.7361 
     68 O          33.9202    4.4981   -7.0423 O.2       11 UNK        -0.4986 
     69 C69        32.9600    1.6466   -5.5769 C.3       12 UNK        -0.0947 
     70 S70        32.7478   -0.1620   -5.6135 S.3       12 UNK        -0.2240 
     71 C71        31.8494   -0.4381   -4.0522 C.3       12 UNK         0.0194 
     72 H72        27.3372   -7.7243   -1.9577 H         1 UNK         0.0906 
     73 H73        25.8944   -7.0100   -2.6822 H         1 UNK         0.0906 
     74 H74        27.4914   -6.4240   -3.1412 H         1 UNK         0.0906 
     75 H75        28.1179   -4.5254   -2.1057 H         1 UNK         0.3140 
     76 H76        27.5503   -4.0260    0.7026 H         1 UNK         0.1085 
     77 H77        28.8529   -1.8945    0.2419 H         1 UNK         0.0836 
     78 H78        29.0126   -2.3638   -1.4171 H         1 UNK         0.0836 
     79 H79        31.9376   -4.9673   -1.2296 H         1 UNK         0.0731 
     80 H80        30.3061   -5.5488   -1.4238 H         1 UNK         0.0731 
     81 H81        31.9450   -2.1753   -1.9490 H         1 UNK         0.1312 
     82 H82        30.3858   -1.7963   -5.9194 H         1 UNK         0.1406 
     83 H83        29.7041   -5.3894   -3.7031 H         1 UNK         0.1631 
     84 H84        29.7592   -5.1557   -6.4537 H         1 UNK         0.0717 
     85 H85        29.2754   -3.5733   -6.9927 H         1 UNK         0.0717 
     86 H86        25.8800   -3.3707   -4.6907 H         1 UNK         0.0934 
     87 H87        27.4328   -2.6537   -4.4568 H         1 UNK         0.0934 
     88 H88        26.3544   -2.6596   -7.3064 H         1 UNK         0.0739 
     89 H89        24.8293   -1.4243   -5.2021 H         1 UNK         0.3093 
     90 H90        23.1351    0.9387   -7.2133 H         1 UNK         0.0818 
     91 H91        21.1020   -0.3044   -6.5180 H         1 UNK         0.0819 
     92 H92        21.9235   -1.1652   -7.8079 H         1 UNK         0.0819 
     93 H93        22.0659   -1.7360   -6.1512 H         1 UNK         0.0819 
     94 H94        22.7301    0.0394   -4.5284 H         1 UNK         0.3041 
     95 H95        25.2616    1.9972   -2.9795 H         1 UNK         0.0784 
     96 H96        23.3842    3.6171   -3.3129 H         1 UNK         0.0793 
     97 H97        22.2138    2.3560   -2.9513 H         1 UNK         0.0793 
     98 H98        23.3381    2.9075   -1.7085 H         1 UNK         0.0793 
     99 H99        23.2645    0.3654   -1.8311 H         1 UNK         0.3024 
    100 H100       23.9479   -1.5947   -0.8018 H         1 UNK         0.1171 
    101 H101       22.4725   -2.1367   -2.7418 H         1 UNK         0.0786 
    102 H102       23.0352   -3.6121   -1.9800 H         1 UNK         0.0786 
    103 H103       23.7546   -3.0746   -3.4947 H         1 UNK         0.0786 
    104 H104       25.7838   -3.4858   -2.1359 H         1 UNK         0.2977 
    105 H105       26.9932   -0.1396   -4.8481 H         1 UNK         0.3127 
    106 H106       29.5879    0.5813   -5.7338 H         1 UNK         0.0770 
    107 H107       27.5188    2.2441   -4.1945 H         1 UNK         0.0814 
    108 H108       29.2449    2.5704   -4.2746 H         1 UNK         0.0814 
    109 H109       28.6666    1.1193   -3.4686 H         1 UNK         0.0814 
    110 H110       26.4137    1.6740   -6.8728 H         1 UNK         0.2983 
    111 H111       27.4468    3.7824   -8.5652 H         1 UNK         0.0947 
    112 H112       25.1397    3.7652   -9.5045 H         1 UNK         0.0806 
    113 H113       25.0973    3.7736   -7.7480 H         1 UNK         0.0806 
    114 H114       24.7719    2.2838   -8.6316 H         1 UNK         0.0806 
    115 H115       26.6619    0.3198   -9.0617 H         1 UNK         0.3000 
    116 H116       27.0441    0.3589  -11.9093 H         1 UNK         0.0850 
    117 H117       26.8970   -2.1312  -11.6688 H         1 UNK         0.0810 
    118 H118       25.5915   -1.3136  -10.8247 H         1 UNK         0.0810 
    119 H119       26.9518   -1.9689   -9.9176 H         1 UNK         0.0810 
    120 H120       29.1265   -0.7086   -9.1777 H         1 UNK         0.3040 
    121 H121       31.3436   -1.4581  -10.9377 H         1 UNK         0.0766 
    122 H122       32.4551   -1.9910   -8.7649 H         1 UNK         0.0812 
    123 H123       30.8394   -2.6826   -8.8001 H         1 UNK         0.0812 
    124 H124       31.1493   -1.2018   -7.8951 H         1 UNK         0.0812 
    125 H125       33.5114   -0.5397  -10.6525 H         1 UNK         0.3205 
    126 H126       33.5408    2.3870  -10.6575 H         1 UNK         0.0754 
    127 H127       35.8623    2.0744  -11.4575 H         1 UNK         0.0769 
    128 H128       34.7588    1.0837  -12.3935 H         1 UNK         0.0769 
    129 H129       35.7700    0.3449  -11.1511 H         1 UNK         0.0769 
    130 H130       32.7657    1.7386   -8.1691 H         1 UNK         0.2981 
    131 H131       34.9854    1.5596   -6.2917 H         1 UNK         0.0541 
    132 H132       35.6042    3.2360   -4.7241 H         1 UNK         0.3459 
    133 H133       35.4212    4.9150   -5.1591 H         1 UNK         0.3459 
    134 H134       32.0075    2.1174   -5.8283 H         1 UNK         0.0612 
    135 H135       33.1907    1.9382   -4.5504 H         1 UNK         0.0612 
    136 H136       32.5370   -0.2565   -3.2248 H         1 UNK         0.0624 
    137 H137       31.0485    0.2936   -3.9535 H         1 UNK         0.0624 
@<TRIPOS>BOND
     1    1    2 1    
     2    1   72 1    
     3    1   73 1    
     4    1   74 1    
     5    2    3 2    
     6    2    4 am   BACKBONE|DICT|INTERRES
     7    4    5 1    
     8    4   75 1    
     9    5    6 1    
    10    5   35 1    
    11    5   76 1    
    12    6    7 1    
    13    6   77 1    
    14    6   78 1    
    15    7    8 1    
    16    8    9 1    
    17    8   79 1    
    18    8   80 1    
    19    9   10 ar   
    20    9   14 ar   
    21   10   11 ar   
    22   10   81 1    
    23   11   12 ar   
    24   11   71 1    
    25   12   13 ar   
    26   12   82 1    
    27   13   14 ar   
    28   13   15 1    
    29   14   83 1    
    30   15   16 1    
    31   15   84 1    
    32   15   85 1    
    33   16   17 1    
    34   17   18 1    
    35   17   86 1    
    36   17   87 1    
    37   18   19 1    
    38   18   37 1    
    39   18   88 1    
    40   19   20 am   BACKBONE|DICT|INTERRES
    41   19   89 1    
    42   20   21 2    
    43   20   22 1    
    44   22   23 1    
    45   22   24 1    
    46   22   90 1    
    47   23   91 1    
    48   23   92 1    
    49   23   93 1    
    50   24   25 am   BACKBONE|DICT|INTERRES
    51   24   94 1    
    52   25   26 2    
    53   25   27 1    
    54   27   28 1    
    55   27   29 1    
    56   27   95 1    
    57   28   96 1    
    58   28   97 1    
    59   28   98 1    
    60   29   30 am   BACKBONE|DICT|INTERRES
    61   29   99 1    
    62   30   31 2    
    63   30   32 1    
    64   32   33 1    
    65   32   34 1    
    66   32  100 1    
    67   33  101 1    
    68   33  102 1    
    69   33  103 1    
    70   34   35 am   BACKBONE|DICT|INTERRES
    71   34  104 1    
    72   35   36 2    
    73   37   38 2    
    74   37   39 am   BACKBONE|DICT|INTERRES
    75   39   40 1    
    76   39  105 1    
    77   40   41 1    
    78   40   42 1    
    79   40  106 1    
    80   41  107 1    
    81   41  108 1    
    82   41  109 1    
    83   42   43 2    
    84   42   44 am   BACKBONE|DICT|INTERRES
    85   44   45 1    
    86   44  110 1    
    87   45   46 1    
    88   45   47 1    
    89   45  111 1    
    90   46  112 1    
    91   46  113 1    
    92   46  114 1    
    93   47   48 2    
    94   47   49 am   BACKBONE|DICT|INTERRES
    95   49   50 1    
    96   49  115 1    
    97   50   51 1    
    98   50   52 1    
    99   50  116 1    
   100   51  117 1    
   101   51  118 1    
   102   51  119 1    
   103   52   53 2    
   104   52   54 am   BACKBONE|DICT|INTERRES
   105   54   55 1    
   106   54  120 1    
   107   55   56 1    
   108   55   57 1    
   109   55  121 1    
   110   56  122 1    
   111   56  123 1    
   112   56  124 1    
   113   57   58 2    
   114   57   59 am   BACKBONE|DICT|INTERRES
   115   59   60 1    
   116   59  125 1    
   117   60   61 1    
   118   60   62 1    
   119   60  126 1    
   120   61  127 1    
   121   61  128 1    
   122   61  129 1    
   123   62   63 2    
   124   62   64 am   BACKBONE|DICT|INTERRES
   125   64   65 1    
   126   64  130 1    
   127   65   66 1    
   128   65   69 1    
   129   65  131 1    
   130   66   67 am   BACKBONE|DICT|INTERRES
   131   66   68 2    
   132   67  132 1    
   133   67  133 1    
   134   69   70 1    
   135   69  134 1    
   136   69  135 1    
   137   70   71 1    
   138   71  136 1    
   139   71  137 1    
@<TRIPOS>SUBSTRUCTURE
     1 UNK         1 GROUP             0       ****    0 ROOT    
