@<TRIPOS>MOLECULE
3R137
137   139    1
SMALL
USER_CHARGES


@<TRIPOS>ATOM
      1 CA         23.8422   -5.6328   -3.5767 C.3       0 UNK        -0.2020 
      2 C          24.9937   -4.8229   -3.0034 C.2       0 UNK         0.4855 
      3 O          25.4207   -3.8491   -3.6257 O.2       0 UNK        -0.5197 
      4 N          25.4803   -5.1974   -1.8105 N.am      1 UNK        -0.4892 
      5 CA         26.6195   -4.6301   -1.0634 C.3       1 UNK         0.0835 
      6 C6         27.9519   -4.7204   -1.8556 C.3       12 UNK        -0.0855 
      7 S7         29.3988   -4.8334   -0.7534 S.3       12 UNK        -0.2931 
      8 C8         30.7621   -4.8868   -1.9597 C.3       12 UNK         0.0378 
      9 C9         30.9221   -3.5862   -2.7386 C.ar      12 UNK        -0.0802 
     10 C10        30.9409   -3.6054   -4.1360 C.ar      12 UNK        -0.0944 
     11 C11        31.1533   -2.4287   -4.8592 C.ar      12 UNK        -0.0787 
     12 C12        31.3304   -1.2237   -4.1756 C.ar      12 UNK        -0.0862 
     13 C13        31.2720   -1.1788   -2.7788 C.ar      12 UNK        -0.0733 
     14 C14        31.0857   -2.3690   -2.0681 C.ar      12 UNK        -0.0832 
     15 C15        31.4195    0.1368   -2.0146 C.3       12 UNK         0.0240 
     16 S16        30.6146    1.5798   -2.8011 S.3       12 UNK        -0.2522 
     17 C17        28.9145    0.9859   -3.1000 C.3       12 UNK        -0.0967 
     18 CA         28.5854    0.9590   -4.6184 C.3       5 UNK         0.0660 
     19 N          27.7516   -0.1834   -4.9865 N.am      5 UNK        -0.4015 
     20 C          27.6206   -0.6658   -6.2302 C.2       4 UNK         0.4946 
     21 O          28.2538   -0.2484   -7.2017 O.2       4 UNK        -0.5353 
     22 CA         26.5846   -1.7870   -6.4284 C.3       4 UNK         0.0277 
     23 CB         27.2452   -3.1665   -6.2816 C.3       4 UNK        -0.1981 
     24 N          25.4525   -1.6933   -5.5004 N.am      4 UNK        -0.4209 
     25 C          24.5489   -0.7019   -5.5115 C.2       3 UNK         0.4942 
     26 O          24.5606    0.2212   -6.3226 O.2       3 UNK        -0.5208 
     27 CA         23.4866   -0.7026   -4.4012 C.3       3 UNK         0.0250 
     28 CB         22.3479   -1.6753   -4.7460 C.3       3 UNK        -0.1990 
     29 N          24.0250   -1.0267   -3.0783 N.am      3 UNK        -0.4232 
     30 C          24.9990   -0.3559   -2.4435 C.2       2 UNK         0.4993 
     31 O          25.5733    0.6301   -2.9044 O.2       2 UNK        -0.5286 
     32 CA         25.4579   -0.9432   -1.1078 C.3       2 UNK         0.0209 
     33 CB         24.3973   -0.7360   -0.0091 C.3       2 UNK        -0.1931 
     34 N          25.7467   -2.3570   -1.3232 N.am      2 UNK        -0.4546 
     35 C          26.3784   -3.2040   -0.5108 C.2       1 UNK         0.5154 
     36 O          26.7552   -2.9097    0.6244 O.2       1 UNK        -0.5181 
     37 C          27.9427    2.2735   -5.0981 C.2       5 UNK         0.5014 
     38 O          28.6166    3.0771   -5.7424 O.2       5 UNK        -0.5248 
     39 N          26.6420    2.4459   -4.8160 N.am      6 UNK        -0.4434 
     40 CA         25.8311    3.5959   -5.2286 C.3       6 UNK         0.0363 
     41 CB         24.4374    3.4947   -4.5889 C.3       6 UNK        -0.1936 
     42 C          25.7187    3.7469   -6.7561 C.2       6 UNK         0.5081 
     43 O          25.8035    4.8660   -7.2621 O.2       6 UNK        -0.5248 
     44 N          25.5631    2.6202   -7.4645 N.am      7 UNK        -0.4718 
     45 CA         25.5633    2.5435   -8.9286 C.3       7 UNK         0.0273 
     46 CB         24.9524    1.1992   -9.3580 C.3       7 UNK        -0.1935 
     47 C          26.9602    2.7102   -9.5556 C.2       7 UNK         0.5018 
     48 O          27.0412    2.9251  -10.7656 O.2       7 UNK        -0.5186 
     49 N          28.0181    2.5926   -8.7376 N.am      8 UNK        -0.4240 
     50 CA         29.4390    2.6245   -9.0942 C.3       8 UNK         0.0235 
     51 CB         29.8572    4.0331   -9.5656 C.3       8 UNK        -0.2000 
     52 C          29.8070    1.5147  -10.0947 C.2       8 UNK         0.4941 
     53 O          30.3960    1.7903  -11.1432 O.2       8 UNK        -0.5273 
     54 N          29.4474    0.2688   -9.7556 N.am      9 UNK        -0.4262 
     55 CA         29.6596   -0.9317  -10.5702 C.3       9 UNK         0.0264 
     56 CB         28.7242   -2.0428  -10.0585 C.3       9 UNK        -0.1955 
     57 C          31.1381   -1.3685  -10.5849 C.2       9 UNK         0.5031 
     58 O          31.4755   -2.4196  -10.0404 O.2       9 UNK        -0.5390 
     59 N          32.0002   -0.5250  -11.1684 N.am      10 UNK        -0.4204 
     60 CA         33.4671   -0.5984  -11.2489 C.3       10 UNK         0.0237 
     61 CB         33.9561   -1.8991  -11.9173 C.3       10 UNK        -0.1985 
     62 C          34.1578   -0.3555   -9.8959 C.2       10 UNK         0.4970 
     63 O          35.0116    0.5272   -9.8082 O.2       10 UNK        -0.4914 
     64 N          33.7555   -1.1064   -8.8653 N.am      11 UNK        -0.4285 
     65 CA         34.1451   -0.9066   -7.4599 C.3       11 UNK         0.1007 
     66 C          33.4871    0.3256   -6.7714 C.2       11 UNK         0.5703 
     67 N          32.4965    0.9776   -7.3690 N.am      11 UNK        -0.7361 
     68 O          33.8977    0.7085   -5.6793 O.2       11 UNK        -0.4986 
     69 C69        34.0172   -2.2052   -6.6063 C.3       12 UNK        -0.0947 
     70 S70        32.6352   -3.3227   -7.0340 S.3       12 UNK        -0.2240 
     71 C71        31.1747   -2.4590   -6.3789 C.3       12 UNK         0.0194 
     72 H72        24.0888   -5.9699   -4.5832 H         1 UNK         0.0906 
     73 H73        23.6185   -6.5108   -2.9711 H         1 UNK         0.0906 
     74 H74        22.9434   -5.0198   -3.6335 H         1 UNK         0.0906 
     75 H75        25.0380   -5.9797   -1.3465 H         1 UNK         0.3140 
     76 H76        26.7090   -5.2748   -0.1869 H         1 UNK         0.1085 
     77 H77        28.0669   -3.8776   -2.5407 H         1 UNK         0.0836 
     78 H78        27.9556   -5.6148   -2.4809 H         1 UNK         0.0836 
     79 H79        30.6043   -5.7305   -2.6336 H         1 UNK         0.0731 
     80 H80        31.6923   -5.0901   -1.4276 H         1 UNK         0.0731 
     81 H81        30.8125   -4.5390   -4.6668 H         1 UNK         0.1312 
     82 H82        31.4989   -0.3137   -4.7323 H         1 UNK         0.1406 
     83 H83        31.0645   -2.3529   -0.9866 H         1 UNK         0.1631 
     84 H84        32.4820    0.3529   -1.8971 H         1 UNK         0.0717 
     85 H85        31.0120    0.0347   -1.0075 H         1 UNK         0.0717 
     86 H86        28.8132   -0.0109   -2.6685 H         1 UNK         0.0934 
     87 H87        28.2154    1.6075   -2.5364 H         1 UNK         0.0934 
     88 H88        29.5169    0.8455   -5.1769 H         1 UNK         0.0739 
     89 H89        27.1500   -0.5519   -4.2651 H         1 UNK         0.3093 
     90 H90        26.1931   -1.6995   -7.4441 H         1 UNK         0.0818 
     91 H91        28.0097   -3.3154   -7.0430 H         1 UNK         0.0819 
     92 H92        26.5175   -3.9697   -6.3986 H         1 UNK         0.0819 
     93 H93        27.7207   -3.2875   -5.3070 H         1 UNK         0.0819 
     94 H94        25.3692   -2.4355   -4.8075 H         1 UNK         0.3041 
     95 H95        23.0697    0.3049   -4.3446 H         1 UNK         0.0784 
     96 H96        21.9144   -1.4380   -5.7187 H         1 UNK         0.0793 
     97 H97        22.6966   -2.7080   -4.7882 H         1 UNK         0.0793 
     98 H98        21.5426   -1.6212   -4.0132 H         1 UNK         0.0793 
     99 H99        23.6130   -1.8219   -2.6128 H         1 UNK         0.3024 
    100 H100       26.3811   -0.4388   -0.8141 H         1 UNK         0.1171 
    101 H101       24.7628   -1.0622    0.9645 H         1 UNK         0.0786 
    102 H102       24.1357    0.3189    0.0851 H         1 UNK         0.0786 
    103 H103       23.4786   -1.2844   -0.2195 H         1 UNK         0.0786 
    104 H104       25.5360   -2.7229   -2.2510 H         1 UNK         0.2977 
    105 H105       26.1760    1.7459   -4.2405 H         1 UNK         0.3127 
    106 H106       26.3190    4.4939   -4.8439 H         1 UNK         0.0770 
    107 H107       23.9027    2.6069   -4.9276 H         1 UNK         0.0814 
    108 H108       23.8267    4.3615   -4.8448 H         1 UNK         0.0814 
    109 H109       24.5016    3.4514   -3.5014 H         1 UNK         0.0814 
    110 H110       25.4087    1.7453   -6.9658 H         1 UNK         0.2983 
    111 H111       24.9339    3.3478   -9.3157 H         1 UNK         0.0947 
    112 H112       24.8959    1.1219  -10.4446 H         1 UNK         0.0806 
    113 H113       23.9397    1.0818   -8.9719 H         1 UNK         0.0806 
    114 H114       25.5467    0.3569   -9.0008 H         1 UNK         0.0806 
    115 H115       27.8289    2.4288   -7.7566 H         1 UNK         0.3000 
    116 H116       29.9867    2.4080   -8.1761 H         1 UNK         0.0850 
    117 H117       30.9336    4.0837   -9.7339 H         1 UNK         0.0810 
    118 H118       29.6095    4.7883   -8.8196 H         1 UNK         0.0810 
    119 H119       29.3690    4.3113  -10.5002 H         1 UNK         0.0810 
    120 H120       28.9894    0.1238   -8.8554 H         1 UNK         0.3040 
    121 H121       29.3750   -0.7056  -11.6000 H         1 UNK         0.0766 
    122 H122       27.6798   -1.7325  -10.0946 H         1 UNK         0.0812 
    123 H123       28.9564   -2.3167   -9.0290 H         1 UNK         0.0812 
    124 H124       28.8181   -2.9442  -10.6654 H         1 UNK         0.0812 
    125 H125       31.5949    0.3523  -11.4917 H         1 UNK         0.3205 
    126 H126       33.7605    0.2265  -11.9004 H         1 UNK         0.0754 
    127 H127       35.0359   -1.8732  -12.0687 H         1 UNK         0.0769 
    128 H128       33.4950   -2.0386  -12.8951 H         1 UNK         0.0769 
    129 H129       33.7377   -2.7816  -11.3154 H         1 UNK         0.0769 
    130 H130       33.0311   -1.7998   -9.0352 H         1 UNK         0.2981 
    131 H131       35.2087   -0.6603   -7.4701 H         1 UNK         0.0541 
    132 H132       32.1030    1.7852   -6.9139 H         1 UNK         0.3459 
    133 H133       32.1720    0.6863   -8.2744 H         1 UNK         0.3459 
    134 H134       33.9866   -1.9922   -5.5360 H         1 UNK         0.0612 
    135 H135       34.9250   -2.7935   -6.7459 H         1 UNK         0.0612 
    136 H136       30.2871   -2.9812   -6.7338 H         1 UNK         0.0624 
    137 H137       31.1158   -1.4549   -6.7995 H         1 UNK         0.0624 
@<TRIPOS>BOND
     1    1    2 1    
     2    1   72 1    
     3    1   73 1    
     4    1   74 1    
     5    2    3 2    
     6    2    4 am   BACKBONE|DICT|INTERRES
     7    4    5 1    
     8    4   75 1    
     9    5    6 1    
    10    5   35 1    
    11    5   76 1    
    12    6    7 1    
    13    6   77 1    
    14    6   78 1    
    15    7    8 1    
    16    8    9 1    
    17    8   79 1    
    18    8   80 1    
    19    9   10 ar   
    20    9   14 ar   
    21   10   11 ar   
    22   10   81 1    
    23   11   12 ar   
    24   11   71 1    
    25   12   13 ar   
    26   12   82 1    
    27   13   14 ar   
    28   13   15 1    
    29   14   83 1    
    30   15   16 1    
    31   15   84 1    
    32   15   85 1    
    33   16   17 1    
    34   17   18 1    
    35   17   86 1    
    36   17   87 1    
    37   18   19 1    
    38   18   37 1    
    39   18   88 1    
    40   19   20 am   BACKBONE|DICT|INTERRES
    41   19   89 1    
    42   20   21 2    
    43   20   22 1    
    44   22   23 1    
    45   22   24 1    
    46   22   90 1    
    47   23   91 1    
    48   23   92 1    
    49   23   93 1    
    50   24   25 am   BACKBONE|DICT|INTERRES
    51   24   94 1    
    52   25   26 2    
    53   25   27 1    
    54   27   28 1    
    55   27   29 1    
    56   27   95 1    
    57   28   96 1    
    58   28   97 1    
    59   28   98 1    
    60   29   30 am   BACKBONE|DICT|INTERRES
    61   29   99 1    
    62   30   31 2    
    63   30   32 1    
    64   32   33 1    
    65   32   34 1    
    66   32  100 1    
    67   33  101 1    
    68   33  102 1    
    69   33  103 1    
    70   34   35 am   BACKBONE|DICT|INTERRES
    71   34  104 1    
    72   35   36 2    
    73   37   38 2    
    74   37   39 am   BACKBONE|DICT|INTERRES
    75   39   40 1    
    76   39  105 1    
    77   40   41 1    
    78   40   42 1    
    79   40  106 1    
    80   41  107 1    
    81   41  108 1    
    82   41  109 1    
    83   42   43 2    
    84   42   44 am   BACKBONE|DICT|INTERRES
    85   44   45 1    
    86   44  110 1    
    87   45   46 1    
    88   45   47 1    
    89   45  111 1    
    90   46  112 1    
    91   46  113 1    
    92   46  114 1    
    93   47   48 2    
    94   47   49 am   BACKBONE|DICT|INTERRES
    95   49   50 1    
    96   49  115 1    
    97   50   51 1    
    98   50   52 1    
    99   50  116 1    
   100   51  117 1    
   101   51  118 1    
   102   51  119 1    
   103   52   53 2    
   104   52   54 am   BACKBONE|DICT|INTERRES
   105   54   55 1    
   106   54  120 1    
   107   55   56 1    
   108   55   57 1    
   109   55  121 1    
   110   56  122 1    
   111   56  123 1    
   112   56  124 1    
   113   57   58 2    
   114   57   59 am   BACKBONE|DICT|INTERRES
   115   59   60 1    
   116   59  125 1    
   117   60   61 1    
   118   60   62 1    
   119   60  126 1    
   120   61  127 1    
   121   61  128 1    
   122   61  129 1    
   123   62   63 2    
   124   62   64 am   BACKBONE|DICT|INTERRES
   125   64   65 1    
   126   64  130 1    
   127   65   66 1    
   128   65   69 1    
   129   65  131 1    
   130   66   67 am   BACKBONE|DICT|INTERRES
   131   66   68 2    
   132   67  132 1    
   133   67  133 1    
   134   69   70 1    
   135   69  134 1    
   136   69  135 1    
   137   70   71 1    
   138   71  136 1    
   139   71  137 1    
@<TRIPOS>SUBSTRUCTURE
     1 UNK         1 GROUP             0       ****    0 ROOT    
