@<TRIPOS>MOLECULE
3R137
137   139    1
SMALL
USER_CHARGES


@<TRIPOS>ATOM
      1 CA         26.2944   -4.9980   -7.8282 C.3       0 UNK        -0.2020 
      2 C          26.2298   -4.5362   -6.3811 C.2       0 UNK         0.4855 
      3 O          25.5425   -3.5610   -6.0844 O.2       0 UNK        -0.5197 
      4 N          26.9183   -5.2415   -5.4714 N.am      1 UNK        -0.4892 
      5 CA         27.1032   -4.8917   -4.0490 C.3       1 UNK         0.0835 
      6 C6         27.9526   -3.6033   -3.8647 C.3       12 UNK        -0.0855 
      7 S7         29.6413   -3.8202   -4.5236 S.3       12 UNK        -0.2931 
      8 C8         30.6372   -3.8154   -2.9999 C.3       12 UNK         0.0378 
      9 C9         30.9983   -2.3973   -2.5860 C.ar      12 UNK        -0.0802 
     10 C10        32.1632   -1.8057   -3.0829 C.ar      12 UNK        -0.0944 
     11 C11        32.5079   -0.5012   -2.7203 C.ar      12 UNK        -0.0787 
     12 C12        31.6711    0.2182   -1.8629 C.ar      12 UNK        -0.0862 
     13 C13        30.4933   -0.3566   -1.3728 C.ar      12 UNK        -0.0733 
     14 C14        30.1730   -1.6722   -1.7206 C.ar      12 UNK        -0.0832 
     15 C15        29.5574    0.4538   -0.4846 C.3       12 UNK         0.0240 
     16 S16        27.9502    0.7957   -1.2829 S.3       12 UNK        -0.2522 
     17 C17        28.4444    1.5593   -2.8669 C.3       12 UNK        -0.0967 
     18 CA         27.9621    0.7076   -4.0787 C.3       5 UNK         0.0660 
     19 N          26.4966    0.7280   -4.2040 N.am      5 UNK        -0.4015 
     20 C          25.7419    1.7408   -4.6518 C.2       4 UNK         0.4946 
     21 O          26.2107    2.7589   -5.1680 O.2       4 UNK        -0.5353 
     22 CA         24.2134    1.6341   -4.4415 C.3       4 UNK         0.0277 
     23 CB         23.4516    2.8088   -5.0865 C.3       4 UNK        -0.1981 
     24 N          23.5808    0.3834   -4.8797 N.am      4 UNK        -0.4209 
     25 C          23.7056   -0.8254   -4.3157 C.2       3 UNK         0.4942 
     26 O          24.5235   -1.0774   -3.4275 O.2       3 UNK        -0.5208 
     27 CA         22.7046   -1.9044   -4.7746 C.3       3 UNK         0.0250 
     28 CB         22.4208   -1.8875   -6.2890 C.3       3 UNK        -0.1990 
     29 N          23.1889   -3.2337   -4.4111 N.am      3 UNK        -0.4232 
     30 C          22.6781   -4.0184   -3.4525 C.2       2 UNK         0.4993 
     31 O          21.6907   -3.7215   -2.7777 O.2       2 UNK        -0.5286 
     32 CA         23.3611   -5.3790   -3.2070 C.3       2 UNK         0.0209 
     33 CB         22.5186   -6.5189   -3.8039 C.3       2 UNK        -0.1931 
     34 N          24.7161   -5.4526   -3.7587 N.am      2 UNK        -0.4546 
     35 C          25.7891   -4.8484   -3.2294 C.2       1 UNK         0.5154 
     36 O          25.7663   -4.2869   -2.1329 O.2       1 UNK        -0.5181 
     37 C          28.6469    1.0651   -5.4182 C.2       5 UNK         0.5014 
     38 O          28.3968    0.3826   -6.4133 O.2       5 UNK        -0.5248 
     39 N          29.4476    2.1425   -5.4374 N.am      6 UNK        -0.4434 
     40 CA         30.2062    2.6432   -6.5876 C.3       6 UNK         0.0363 
     41 CB         31.0155    3.8770   -6.1557 C.3       6 UNK        -0.1936 
     42 C          29.3598    2.9795   -7.8285 C.2       6 UNK         0.5081 
     43 O          29.8880    2.9343   -8.9393 O.2       6 UNK        -0.5248 
     44 N          28.0742    3.3077   -7.6342 N.am      7 UNK        -0.4718 
     45 CA         27.1282    3.5612   -8.7232 C.3       7 UNK         0.0273 
     46 CB         25.9580    4.4061   -8.1942 C.3       7 UNK        -0.1935 
     47 C          26.6099    2.2672   -9.3763 C.2       7 UNK         0.5018 
     48 O          26.1210    2.3280  -10.5053 O.2       7 UNK        -0.5186 
     49 N          26.7100    1.1347   -8.6673 N.am      8 UNK        -0.4240 
     50 CA         26.2746   -0.1809   -9.1309 C.3       8 UNK         0.0235 
     51 CB         25.5510   -0.9001   -7.9857 C.3       8 UNK        -0.2000 
     52 C          27.4576   -1.0157   -9.6392 C.2       8 UNK         0.4941 
     53 O          27.3401   -1.6402  -10.6943 O.2       8 UNK        -0.5273 
     54 N          28.5737   -1.0048   -8.9014 N.am      9 UNK        -0.4262 
     55 CA         29.8192   -1.6796   -9.2509 C.3       9 UNK         0.0264 
     56 CB         29.8683   -3.0641   -8.5797 C.3       9 UNK        -0.1955 
     57 C          30.9710   -0.7810   -8.7945 C.2       9 UNK         0.5031 
     58 O          31.1410   -0.5924   -7.5902 O.2       9 UNK        -0.5390 
     59 N          31.7118   -0.2170   -9.7585 N.am      10 UNK        -0.4204 
     60 CA         32.7873    0.7551   -9.5393 C.3       10 UNK         0.0237 
     61 CB         33.3535    1.2031  -10.8968 C.3       10 UNK        -0.1985 
     62 C          33.9103    0.2207   -8.6335 C.2       10 UNK         0.4970 
     63 O          34.3970   -0.8910   -8.8534 O.2       10 UNK        -0.4914 
     64 N          34.3008    1.0370   -7.6494 N.am      11 UNK        -0.4285 
     65 CA         35.3078    0.7079   -6.6280 C.3       11 UNK         0.1007 
     66 C          36.7832    0.8192   -7.1115 C.2       11 UNK         0.5703 
     67 N          37.0599    1.3395   -8.3017 N.am      11 UNK        -0.7361 
     68 O          37.6956    0.4150   -6.3945 O.2       11 UNK        -0.4986 
     69 C69        35.0764    1.5254   -5.3287 C.3       12 UNK        -0.0947 
     70 S70        33.4091    1.2616   -4.6355 S.3       12 UNK        -0.2240 
     71 C71        33.7793    0.1310   -3.2631 C.3       12 UNK         0.0194 
     72 H72        26.9914   -5.8249   -7.9628 H         1 UNK         0.0906 
     73 H73        25.3093   -5.3216   -8.1629 H         1 UNK         0.0906 
     74 H74        26.6170   -4.1757   -8.4666 H         1 UNK         0.0906 
     75 H75        27.4451   -6.0481   -5.7783 H         1 UNK         0.3140 
     76 H76        27.6658   -5.7173   -3.6096 H         1 UNK         0.1085 
     77 H77        27.4853   -2.7549   -4.3677 H         1 UNK         0.0836 
     78 H78        28.0164   -3.3234   -2.8137 H         1 UNK         0.0836 
     79 H79        30.1083   -4.3323   -2.1976 H         1 UNK         0.0731 
     80 H80        31.5480   -4.3894   -3.1773 H         1 UNK         0.0731 
     81 H81        32.7987   -2.3607   -3.7597 H         1 UNK         0.1312 
     82 H82        31.9301    1.2338   -1.5960 H         1 UNK         0.1406 
     83 H83        29.2668   -2.1166   -1.3333 H         1 UNK         0.1631 
     84 H84        30.0167    1.4020   -0.2009 H         1 UNK         0.0717 
     85 H85        29.3823   -0.0907    0.4442 H         1 UNK         0.0717 
     86 H86        28.0298    2.5683   -2.9082 H         1 UNK         0.0934 
     87 H87        29.5275    1.6792   -2.8674 H         1 UNK         0.0934 
     88 H88        28.2407   -0.3307   -3.8903 H         1 UNK         0.0739 
     89 H89        26.0009   -0.0734   -3.8179 H         1 UNK         0.3093 
     90 H90        24.0619    1.7079   -3.3625 H         1 UNK         0.0818 
     91 H91        22.3916    2.7838   -4.8330 H         1 UNK         0.0819 
     92 H92        23.8371    3.7690   -4.7402 H         1 UNK         0.0819 
     93 H93        23.5383    2.7947   -6.1734 H         1 UNK         0.0819 
     94 H94        22.9016    0.4803   -5.6199 H         1 UNK         0.3041 
     95 H95        21.7672   -1.6901   -4.2577 H         1 UNK         0.0784 
     96 H96        22.0404   -0.9251   -6.6315 H         1 UNK         0.0793 
     97 H97        23.3131   -2.1240   -6.8655 H         1 UNK         0.0793 
     98 H98        21.6658   -2.6305   -6.5469 H         1 UNK         0.0793 
     99 H99        24.0467   -3.5179   -4.8787 H         1 UNK         0.3024 
    100 H100       23.4173   -5.5214   -2.1252 H         1 UNK         0.1171 
    101 H101       21.5090   -6.5159   -3.3904 H         1 UNK         0.0786 
    102 H102       22.9542   -7.4933   -3.5818 H         1 UNK         0.0786 
    103 H103       22.4271   -6.4291   -4.8871 H         1 UNK         0.0786 
    104 H104       24.8231   -5.8943   -4.6607 H         1 UNK         0.2977 
    105 H105       29.5554    2.6662   -4.5823 H         1 UNK         0.3127 
    106 H106       30.9101    1.8614   -6.8736 H         1 UNK         0.0770 
    107 H107       30.3658    4.6968   -5.8465 H         1 UNK         0.0814 
    108 H108       31.6339    4.2439   -6.9761 H         1 UNK         0.0814 
    109 H109       31.6851    3.6483   -5.3270 H         1 UNK         0.0814 
    110 H110       27.6935    3.2883   -6.6935 H         1 UNK         0.2983 
    111 H111       27.6352    4.1378   -9.5004 H         1 UNK         0.0947 
    112 H112       25.2682    4.6633   -8.9991 H         1 UNK         0.0806 
    113 H113       26.3079    5.3410   -7.7563 H         1 UNK         0.0806 
    114 H114       25.3857    3.8734   -7.4351 H         1 UNK         0.0806 
    115 H115       27.1858    1.1593   -7.7704 H         1 UNK         0.3000 
    116 H116       25.5653   -0.0717   -9.9543 H         1 UNK         0.0850 
    117 H117       25.1934   -1.8779   -8.3099 H         1 UNK         0.0810 
    118 H118       26.2000   -1.0601   -7.1236 H         1 UNK         0.0810 
    119 H119       24.6876   -0.3270   -7.6499 H         1 UNK         0.0810 
    120 H120       28.5961   -0.4761   -8.0282 H         1 UNK         0.3040 
    121 H121       29.8842   -1.8139  -10.3329 H         1 UNK         0.0766 
    122 H122       29.7546   -2.9891   -7.4973 H         1 UNK         0.0812 
    123 H123       30.8195   -3.5600   -8.7757 H         1 UNK         0.0812 
    124 H124       29.0778   -3.7138   -8.9543 H         1 UNK         0.0812 
    125 H125       31.5074   -0.4462  -10.7202 H         1 UNK         0.3205 
    126 H126       32.3348    1.6242   -9.0575 H         1 UNK         0.0754 
    127 H127       34.1379    1.9500  -10.7666 H         1 UNK         0.0769 
    128 H128       32.5810    1.6546  -11.5199 H         1 UNK         0.0769 
    129 H129       33.7870    0.3678  -11.4486 H         1 UNK         0.0769 
    130 H130       33.8531    1.9347   -7.5454 H         1 UNK         0.2981 
    131 H131       35.1716   -0.3440   -6.3690 H         1 UNK         0.0541 
    132 H132       36.3205    1.6691   -8.9003 H         1 UNK         0.3459 
    133 H133       38.0199    1.4000   -8.6027 H         1 UNK         0.3459 
    134 H134       35.1972    2.5921   -5.5250 H         1 UNK         0.0612 
    135 H135       35.8193    1.2718   -4.5701 H         1 UNK         0.0612 
    136 H136       34.2934    0.6776   -2.4712 H         1 UNK         0.0624 
    137 H137       34.4681   -0.6423   -3.6071 H         1 UNK         0.0624 
@<TRIPOS>BOND
     1    1    2 1    
     2    1   72 1    
     3    1   73 1    
     4    1   74 1    
     5    2    3 2    
     6    2    4 am   BACKBONE|DICT|INTERRES
     7    4    5 1    
     8    4   75 1    
     9    5    6 1    
    10    5   35 1    
    11    5   76 1    
    12    6    7 1    
    13    6   77 1    
    14    6   78 1    
    15    7    8 1    
    16    8    9 1    
    17    8   79 1    
    18    8   80 1    
    19    9   10 ar   
    20    9   14 ar   
    21   10   11 ar   
    22   10   81 1    
    23   11   12 ar   
    24   11   71 1    
    25   12   13 ar   
    26   12   82 1    
    27   13   14 ar   
    28   13   15 1    
    29   14   83 1    
    30   15   16 1    
    31   15   84 1    
    32   15   85 1    
    33   16   17 1    
    34   17   18 1    
    35   17   86 1    
    36   17   87 1    
    37   18   19 1    
    38   18   37 1    
    39   18   88 1    
    40   19   20 am   BACKBONE|DICT|INTERRES
    41   19   89 1    
    42   20   21 2    
    43   20   22 1    
    44   22   23 1    
    45   22   24 1    
    46   22   90 1    
    47   23   91 1    
    48   23   92 1    
    49   23   93 1    
    50   24   25 am   BACKBONE|DICT|INTERRES
    51   24   94 1    
    52   25   26 2    
    53   25   27 1    
    54   27   28 1    
    55   27   29 1    
    56   27   95 1    
    57   28   96 1    
    58   28   97 1    
    59   28   98 1    
    60   29   30 am   BACKBONE|DICT|INTERRES
    61   29   99 1    
    62   30   31 2    
    63   30   32 1    
    64   32   33 1    
    65   32   34 1    
    66   32  100 1    
    67   33  101 1    
    68   33  102 1    
    69   33  103 1    
    70   34   35 am   BACKBONE|DICT|INTERRES
    71   34  104 1    
    72   35   36 2    
    73   37   38 2    
    74   37   39 am   BACKBONE|DICT|INTERRES
    75   39   40 1    
    76   39  105 1    
    77   40   41 1    
    78   40   42 1    
    79   40  106 1    
    80   41  107 1    
    81   41  108 1    
    82   41  109 1    
    83   42   43 2    
    84   42   44 am   BACKBONE|DICT|INTERRES
    85   44   45 1    
    86   44  110 1    
    87   45   46 1    
    88   45   47 1    
    89   45  111 1    
    90   46  112 1    
    91   46  113 1    
    92   46  114 1    
    93   47   48 2    
    94   47   49 am   BACKBONE|DICT|INTERRES
    95   49   50 1    
    96   49  115 1    
    97   50   51 1    
    98   50   52 1    
    99   50  116 1    
   100   51  117 1    
   101   51  118 1    
   102   51  119 1    
   103   52   53 2    
   104   52   54 am   BACKBONE|DICT|INTERRES
   105   54   55 1    
   106   54  120 1    
   107   55   56 1    
   108   55   57 1    
   109   55  121 1    
   110   56  122 1    
   111   56  123 1    
   112   56  124 1    
   113   57   58 2    
   114   57   59 am   BACKBONE|DICT|INTERRES
   115   59   60 1    
   116   59  125 1    
   117   60   61 1    
   118   60   62 1    
   119   60  126 1    
   120   61  127 1    
   121   61  128 1    
   122   61  129 1    
   123   62   63 2    
   124   62   64 am   BACKBONE|DICT|INTERRES
   125   64   65 1    
   126   64  130 1    
   127   65   66 1    
   128   65   69 1    
   129   65  131 1    
   130   66   67 am   BACKBONE|DICT|INTERRES
   131   66   68 2    
   132   67  132 1    
   133   67  133 1    
   134   69   70 1    
   135   69  134 1    
   136   69  135 1    
   137   70   71 1    
   138   71  136 1    
   139   71  137 1    
@<TRIPOS>SUBSTRUCTURE
     1 UNK         1 GROUP             0       ****    0 ROOT    
