@<TRIPOS>MOLECULE
3R137
137   139    1
SMALL
USER_CHARGES


@<TRIPOS>ATOM
      1 CA         24.2778   -3.8035    1.0653 C.3       0 UNK        -0.2020 
      2 C          25.6149   -3.4535    0.4283 C.2       0 UNK         0.4855 
      3 O          26.2939   -4.3474   -0.0767 O.2       0 UNK        -0.5197 
      4 N          25.9867   -2.1646    0.4685 N.am      1 UNK        -0.4892 
      5 CA         27.1874   -1.5520   -0.1208 C.3       1 UNK         0.0835 
      6 C6         28.5055   -2.2674    0.2855 C.3       12 UNK        -0.0855 
      7 S7         29.9994   -1.2366    0.0738 S.3       12 UNK        -0.2931 
      8 C8         31.0793   -2.3305   -0.9080 C.3       12 UNK         0.0378 
      9 C9         30.7165   -2.3372   -2.3875 C.ar      12 UNK        -0.0802 
     10 C10        31.2924   -1.4065   -3.2548 C.ar      12 UNK        -0.0944 
     11 C11        30.9945   -1.4263   -4.6202 C.ar      12 UNK        -0.0787 
     12 C12        30.1126   -2.3915   -5.1203 C.ar      12 UNK        -0.0862 
     13 C13        29.4912   -3.3064   -4.2559 C.ar      12 UNK        -0.0733 
     14 C14        29.8192   -3.2796   -2.8965 C.ar      12 UNK        -0.0832 
     15 C15        28.4244   -4.3117   -4.7011 C.3       12 UNK         0.0240 
     16 S16        28.2566   -4.6080   -6.4945 S.3       12 UNK        -0.2522 
     17 C17        27.3691   -3.1301   -7.0882 C.3       12 UNK        -0.0967 
     18 CA         25.8327   -3.3241   -7.1588 C.3       5 UNK         0.0660 
     19 N          25.2145   -3.2033   -5.8356 N.am      5 UNK        -0.4015 
     20 C          23.9865   -3.6383   -5.5226 C.2       4 UNK         0.4946 
     21 O          23.2848   -4.3209   -6.2698 O.2       4 UNK        -0.5353 
     22 CA         23.4359   -3.2019   -4.1551 C.3       4 UNK         0.0277 
     23 CB         23.8610   -4.1868   -3.0544 C.3       4 UNK        -0.1981 
     24 N          23.8577   -1.8398   -3.8054 N.am      4 UNK        -0.4209 
     25 C          23.3415   -0.7341   -4.3692 C.2       3 UNK         0.4942 
     26 O          22.4174   -0.7566   -5.1817 O.2       3 UNK        -0.5208 
     27 CA         23.9545    0.6295   -3.9962 C.3       3 UNK         0.0250 
     28 CB         23.1110    1.3158   -2.9098 C.3       3 UNK        -0.1990 
     29 N          25.3444    0.5526   -3.5464 N.am      3 UNK        -0.4232 
     30 C          26.3883    0.2014   -4.3087 C.2       2 UNK         0.4993 
     31 O          26.3142   -0.0293   -5.5166 O.2       2 UNK        -0.5286 
     32 CA         27.7396    0.0269   -3.6004 C.3       2 UNK         0.0209 
     33 CB         28.6176    1.2685   -3.7987 C.3       2 UNK        -0.1931 
     34 N          27.6628   -0.2951   -2.1704 N.am      2 UNK        -0.4546 
     35 C          27.0454   -1.3645   -1.6480 C.2       1 UNK         0.5154 
     36 O          26.3745   -2.1470   -2.3255 O.2       1 UNK        -0.5181 
     37 C          25.2231   -2.3124   -8.1539 C.2       5 UNK         0.5014 
     38 O          25.1648   -2.6085   -9.3477 O.2       5 UNK        -0.5248 
     39 N          24.8345   -1.1299   -7.6478 N.am      6 UNK        -0.4434 
     40 CA         24.4816    0.0933   -8.3800 C.3       6 UNK         0.0363 
     41 CB         23.2298   -0.1072   -9.2597 C.3       6 UNK        -0.1936 
     42 C          25.6930    0.6578   -9.1505 C.2       6 UNK         0.5081 
     43 O          25.5333    1.2167  -10.2366 O.2       6 UNK        -0.5248 
     44 N          26.8892    0.4714   -8.5753 N.am      7 UNK        -0.4718 
     45 CA         28.1767    0.7688   -9.2052 C.3       7 UNK         0.0273 
     46 CB         29.1464   -0.3888   -8.9113 C.3       7 UNK        -0.1935 
     47 C          28.7877    2.0947   -8.7373 C.2       7 UNK         0.5018 
     48 O          29.6118    2.6502   -9.4650 O.2       7 UNK        -0.5186 
     49 N          28.4157    2.5611   -7.5353 N.am      8 UNK        -0.4240 
     50 CA         28.9566    3.7276   -6.8207 C.3       8 UNK         0.0235 
     51 CB         28.6154    5.0463   -7.5473 C.3       8 UNK        -0.2000 
     52 C          30.4620    3.5948   -6.5124 C.2       8 UNK         0.4941 
     53 O          30.8196    3.3079   -5.3707 O.2       8 UNK        -0.5273 
     54 N          31.3040    3.7872   -7.5339 N.am      9 UNK        -0.4262 
     55 CA         32.7588    3.6275   -7.4896 C.3       9 UNK         0.0264 
     56 CB         33.4154    5.0182   -7.5410 C.3       9 UNK        -0.1955 
     57 C          33.2929    2.7260   -8.6195 C.2       9 UNK         0.5031 
     58 O          34.4947    2.4530   -8.6376 O.2       9 UNK        -0.5390 
     59 N          32.4277    2.2572   -9.5361 N.am      10 UNK        -0.4204 
     60 CA         32.8018    1.4469  -10.7053 C.3       10 UNK         0.0237 
     61 CB         31.6185    1.3800  -11.6862 C.3       10 UNK        -0.1985 
     62 C          33.3239    0.0343  -10.3756 C.2       10 UNK         0.4970 
     63 O          33.8585   -0.6262  -11.2673 O.2       10 UNK        -0.4914 
     64 N          33.1866   -0.3965   -9.1151 N.am      11 UNK        -0.4285 
     65 CA         33.8336   -1.5938   -8.5610 C.3       11 UNK         0.1007 
     66 C          35.3883   -1.5048   -8.4687 C.2       11 UNK         0.5703 
     67 N          35.9950   -0.3235   -8.5401 N.am      11 UNK        -0.7361 
     68 O          36.0535   -2.5302   -8.3422 O.2       11 UNK        -0.4986 
     69 C69        33.1976   -2.0058   -7.2062 C.3       12 UNK        -0.0947 
     70 S70        33.3362   -0.7136   -5.9197 S.3       12 UNK        -0.2240 
     71 C71        31.5951   -0.3681   -5.5351 C.3       12 UNK         0.0194 
     72 H72        24.4349   -4.4231    1.9478 H         1 UNK         0.0906 
     73 H73        23.7223   -2.9157    1.3671 H         1 UNK         0.0906 
     74 H74        23.6616   -4.3642    0.3632 H         1 UNK         0.0906 
     75 H75        25.3546   -1.5039    0.8999 H         1 UNK         0.3140 
     76 H76        27.2155   -0.5511    0.3139 H         1 UNK         0.1085 
     77 H77        28.6162   -3.2110   -0.2470 H         1 UNK         0.0836 
     78 H78        28.4607   -2.5365    1.3419 H         1 UNK         0.0836 
     79 H79        31.0494   -3.3427   -0.5016 H         1 UNK         0.0731 
     80 H80        32.1104   -1.9938   -0.7896 H         1 UNK         0.0731 
     81 H81        31.9755   -0.6627   -2.8675 H         1 UNK         0.1312 
     82 H82        29.8935   -2.3974   -6.1768 H         1 UNK         0.1406 
     83 H83        29.3575   -3.9932   -2.2283 H         1 UNK         0.1631 
     84 H84        27.4599   -4.0013   -4.2981 H         1 UNK         0.0717 
     85 H85        28.6457   -5.2756   -4.2404 H         1 UNK         0.0717 
     86 H86        27.6223   -2.2599   -6.4817 H         1 UNK         0.0934 
     87 H87        27.7753   -2.9316   -8.0816 H         1 UNK         0.0934 
     88 H88        25.6223   -4.3218   -7.5511 H         1 UNK         0.0739 
     89 H89        25.7187   -2.6660   -5.1459 H         1 UNK         0.3093 
     90 H90        22.3452   -3.2186   -4.2154 H         1 UNK         0.0818 
     91 H91        23.4904   -5.1904   -3.2672 H         1 UNK         0.0819 
     92 H92        23.4600   -3.8922   -2.0852 H         1 UNK         0.0819 
     93 H93        24.9453   -4.2560   -2.9612 H         1 UNK         0.0819 
     94 H94        24.6391   -1.7598   -3.1599 H         1 UNK         0.3041 
     95 H95        23.9298    1.2526   -4.8929 H         1 UNK         0.0784 
     96 H96        22.0724    1.4174   -3.2282 H         1 UNK         0.0793 
     97 H97        23.1120    0.7483   -1.9782 H         1 UNK         0.0793 
     98 H98        23.4804    2.3186   -2.6942 H         1 UNK         0.0793 
     99 H99        25.5151    0.7253   -2.5667 H         1 UNK         0.3024 
    100 H100       28.2256   -0.8164   -4.0858 H         1 UNK         0.1171 
    101 H101       29.6000    1.1407   -3.3438 H         1 UNK         0.0786 
    102 H102       28.7828    1.4541   -4.8593 H         1 UNK         0.0786 
    103 H103       28.1629    2.1632   -3.3719 H         1 UNK         0.0786 
    104 H104       28.2137    0.2858   -1.5539 H         1 UNK         0.2977 
    105 H105       25.0126   -0.9747   -6.6616 H         1 UNK         0.3127 
    106 H106       24.2333    0.8370   -7.6213 H         1 UNK         0.0770 
    107 H107       23.4235   -0.7742  -10.0999 H         1 UNK         0.0814 
    108 H108       22.8900    0.8427   -9.6738 H         1 UNK         0.0814 
    109 H109       22.4041   -0.5230   -8.6822 H         1 UNK         0.0814 
    110 H110       26.9059    0.0472   -7.6559 H         1 UNK         0.2983 
    111 H111       28.0566    0.8409  -10.2888 H         1 UNK         0.0947 
    112 H112       30.1623   -0.1572   -9.2313 H         1 UNK         0.0806 
    113 H113       28.8454   -1.2917   -9.4419 H         1 UNK         0.0806 
    114 H114       29.1858   -0.6209   -7.8478 H         1 UNK         0.0806 
    115 H115       27.7266    2.0240   -7.0285 H         1 UNK         0.3000 
    116 H116       28.4462    3.7553   -5.8565 H         1 UNK         0.0850 
    117 H117       29.0094    5.9044   -7.0011 H         1 UNK         0.0810 
    118 H118       27.5365    5.1816   -7.6235 H         1 UNK         0.0810 
    119 H119       29.0229    5.0895   -8.5573 H         1 UNK         0.0810 
    120 H120       30.8899    3.9721   -8.4399 H         1 UNK         0.3040 
    121 H121       33.0509    3.1438   -6.5549 H         1 UNK         0.0766 
    122 H122       33.0923    5.6383   -6.7046 H         1 UNK         0.0812 
    123 H123       33.1707    5.5454   -8.4638 H         1 UNK         0.0812 
    124 H124       34.5023    4.9428   -7.4850 H         1 UNK         0.0812 
    125 H125       31.4375    2.4793   -9.4570 H         1 UNK         0.3205 
    126 H126       33.6190    1.9674  -11.2092 H         1 UNK         0.0754 
    127 H127       31.8992    0.8601  -12.6032 H         1 UNK         0.0769 
    128 H128       31.2831    2.3772  -11.9722 H         1 UNK         0.0769 
    129 H129       30.7659    0.8504  -11.2628 H         1 UNK         0.0769 
    130 H130       32.7662    0.2231   -8.4408 H         1 UNK         0.2981 
    131 H131       33.6315   -2.4068   -9.2609 H         1 UNK         0.0541 
    132 H132       35.4591    0.5323   -8.6193 H         1 UNK         0.3459 
    133 H133       36.9999   -0.2827   -8.4835 H         1 UNK         0.3459 
    134 H134       32.1474   -2.2552   -7.3614 H         1 UNK         0.0612 
    135 H135       33.6592   -2.9188   -6.8261 H         1 UNK         0.0612 
    136 H136       31.0253   -0.2698   -6.4585 H         1 UNK         0.0624 
    137 H137       31.5376    0.6035   -5.0426 H         1 UNK         0.0624 
@<TRIPOS>BOND
     1    1    2 1    
     2    1   72 1    
     3    1   73 1    
     4    1   74 1    
     5    2    3 2    
     6    2    4 am   BACKBONE|DICT|INTERRES
     7    4    5 1    
     8    4   75 1    
     9    5    6 1    
    10    5   35 1    
    11    5   76 1    
    12    6    7 1    
    13    6   77 1    
    14    6   78 1    
    15    7    8 1    
    16    8    9 1    
    17    8   79 1    
    18    8   80 1    
    19    9   10 ar   
    20    9   14 ar   
    21   10   11 ar   
    22   10   81 1    
    23   11   12 ar   
    24   11   71 1    
    25   12   13 ar   
    26   12   82 1    
    27   13   14 ar   
    28   13   15 1    
    29   14   83 1    
    30   15   16 1    
    31   15   84 1    
    32   15   85 1    
    33   16   17 1    
    34   17   18 1    
    35   17   86 1    
    36   17   87 1    
    37   18   19 1    
    38   18   37 1    
    39   18   88 1    
    40   19   20 am   BACKBONE|DICT|INTERRES
    41   19   89 1    
    42   20   21 2    
    43   20   22 1    
    44   22   23 1    
    45   22   24 1    
    46   22   90 1    
    47   23   91 1    
    48   23   92 1    
    49   23   93 1    
    50   24   25 am   BACKBONE|DICT|INTERRES
    51   24   94 1    
    52   25   26 2    
    53   25   27 1    
    54   27   28 1    
    55   27   29 1    
    56   27   95 1    
    57   28   96 1    
    58   28   97 1    
    59   28   98 1    
    60   29   30 am   BACKBONE|DICT|INTERRES
    61   29   99 1    
    62   30   31 2    
    63   30   32 1    
    64   32   33 1    
    65   32   34 1    
    66   32  100 1    
    67   33  101 1    
    68   33  102 1    
    69   33  103 1    
    70   34   35 am   BACKBONE|DICT|INTERRES
    71   34  104 1    
    72   35   36 2    
    73   37   38 2    
    74   37   39 am   BACKBONE|DICT|INTERRES
    75   39   40 1    
    76   39  105 1    
    77   40   41 1    
    78   40   42 1    
    79   40  106 1    
    80   41  107 1    
    81   41  108 1    
    82   41  109 1    
    83   42   43 2    
    84   42   44 am   BACKBONE|DICT|INTERRES
    85   44   45 1    
    86   44  110 1    
    87   45   46 1    
    88   45   47 1    
    89   45  111 1    
    90   46  112 1    
    91   46  113 1    
    92   46  114 1    
    93   47   48 2    
    94   47   49 am   BACKBONE|DICT|INTERRES
    95   49   50 1    
    96   49  115 1    
    97   50   51 1    
    98   50   52 1    
    99   50  116 1    
   100   51  117 1    
   101   51  118 1    
   102   51  119 1    
   103   52   53 2    
   104   52   54 am   BACKBONE|DICT|INTERRES
   105   54   55 1    
   106   54  120 1    
   107   55   56 1    
   108   55   57 1    
   109   55  121 1    
   110   56  122 1    
   111   56  123 1    
   112   56  124 1    
   113   57   58 2    
   114   57   59 am   BACKBONE|DICT|INTERRES
   115   59   60 1    
   116   59  125 1    
   117   60   61 1    
   118   60   62 1    
   119   60  126 1    
   120   61  127 1    
   121   61  128 1    
   122   61  129 1    
   123   62   63 2    
   124   62   64 am   BACKBONE|DICT|INTERRES
   125   64   65 1    
   126   64  130 1    
   127   65   66 1    
   128   65   69 1    
   129   65  131 1    
   130   66   67 am   BACKBONE|DICT|INTERRES
   131   66   68 2    
   132   67  132 1    
   133   67  133 1    
   134   69   70 1    
   135   69  134 1    
   136   69  135 1    
   137   70   71 1    
   138   71  136 1    
   139   71  137 1    
@<TRIPOS>SUBSTRUCTURE
     1 UNK         1 GROUP             0       ****    0 ROOT    
