@<TRIPOS>MOLECULE
3R137
137   139    1
SMALL
USER_CHARGES


@<TRIPOS>ATOM
      1 CA         29.0151   -6.4359    0.1556 C.3       0 UNK        -0.2020 
      2 C          28.4751   -5.1088   -0.3545 C.2       0 UNK         0.4855 
      3 O          28.4962   -4.8702   -1.5616 O.2       0 UNK        -0.5197 
      4 N          27.9899   -4.2538    0.5572 N.am      1 UNK        -0.4892 
      5 CA         27.4377   -2.9020    0.3536 C.3       1 UNK         0.0835 
      6 C6         28.4233   -1.8960   -0.2951 C.3       12 UNK        -0.0855 
      7 S7         29.9490   -1.6294    0.6766 S.3       12 UNK        -0.2931 
      8 C8         31.2331   -2.4632   -0.3205 C.3       12 UNK         0.0378 
      9 C9         31.2100   -2.0477   -1.7866 C.ar      12 UNK        -0.0802 
     10 C10        31.4166   -0.7162   -2.1549 C.ar      12 UNK        -0.0944 
     11 C11        31.3310   -0.3223   -3.4934 C.ar      12 UNK        -0.0787 
     12 C12        31.0286   -1.2845   -4.4675 C.ar      12 UNK        -0.0862 
     13 C13        30.8590   -2.6315   -4.1197 C.ar      12 UNK        -0.0733 
     14 C14        30.9528   -2.9991   -2.7759 C.ar      12 UNK        -0.0832 
     15 C15        30.6100   -3.7315   -5.1533 C.3       12 UNK         0.0240 
     16 S16        29.8371   -3.1950   -6.7139 S.3       12 UNK        -0.2522 
     17 C17        28.1762   -2.7143   -6.1448 C.3       12 UNK        -0.0967 
     18 CA         27.5033   -1.6918   -7.0924 C.3       5 UNK         0.0660 
     19 N          26.0536   -1.6488   -6.8833 N.am      5 UNK        -0.4015 
     20 C          25.1794   -1.0751   -7.7235 C.2       4 UNK         0.4946 
     21 O          25.5021   -0.5312   -8.7782 O.2       4 UNK        -0.5353 
     22 CA         23.6967   -1.0759   -7.3105 C.3       4 UNK         0.0277 
     23 CB         23.0025   -2.3536   -7.8078 C.3       4 UNK        -0.1981 
     24 N          23.4928   -0.9388   -5.8670 N.am      4 UNK        -0.4209 
     25 C          23.8720    0.1210   -5.1386 C.2       3 UNK         0.4942 
     26 O          24.3951    1.1271   -5.6149 O.2       3 UNK        -0.5208 
     27 CA         23.6917    0.0196   -3.6148 C.3       3 UNK         0.0250 
     28 CB         22.3252    0.5847   -3.1968 C.3       3 UNK        -0.1990 
     29 N          23.8473   -1.3393   -3.0798 N.am      3 UNK        -0.4232 
     30 C          24.9466   -2.0947   -3.2138 C.2       2 UNK         0.4993 
     31 O          25.9369   -1.7567   -3.8679 O.2       2 UNK        -0.5286 
     32 CA         24.9357   -3.4668   -2.5236 C.3       2 UNK         0.0209 
     33 CB         25.0807   -4.5973   -3.5561 C.3       2 UNK        -0.1931 
     34 N          26.0344   -3.5473   -1.5648 N.am      2 UNK        -0.4546 
     35 C          26.0948   -2.8800   -0.4069 C.2       1 UNK         0.5154 
     36 O          25.1465   -2.2459    0.0590 O.2       1 UNK        -0.5181 
     37 C          28.1244   -0.2867   -6.9664 C.2       5 UNK         0.5014 
     38 O          28.9555    0.0940   -7.7955 O.2       5 UNK        -0.5248 
     39 N          27.6704    0.4677   -5.9548 N.am      6 UNK        -0.4434 
     40 CA         28.0429    1.8626   -5.7295 C.3       6 UNK         0.0363 
     41 CB         27.5702    2.3065   -4.3364 C.3       6 UNK        -0.1936 
     42 C          27.5023    2.7951   -6.8256 C.2       6 UNK         0.5081 
     43 O          28.2463    3.6498   -7.3039 O.2       6 UNK        -0.5248 
     44 N          26.2395    2.5959   -7.2327 N.am      7 UNK        -0.4718 
     45 CA         25.5795    3.3434   -8.3091 C.3       7 UNK         0.0273 
     46 CB         24.0864    2.9837   -8.3529 C.3       7 UNK        -0.1935 
     47 C          26.2296    3.1247   -9.6857 C.2       7 UNK         0.5018 
     48 O          26.3822    4.0864  -10.4395 O.2       7 UNK        -0.5186 
     49 N          26.6301    1.8785   -9.9764 N.am      8 UNK        -0.4240 
     50 CA         27.3951    1.5108  -11.1719 C.3       8 UNK         0.0235 
     51 CB         27.3277   -0.0138  -11.3629 C.3       8 UNK        -0.2000 
     52 C          28.8652    1.9675  -11.1256 C.2       8 UNK         0.4941 
     53 O          29.5162    1.9712  -12.1711 O.2       8 UNK        -0.5273 
     54 N          29.3632    2.3113   -9.9270 N.am      9 UNK        -0.4262 
     55 CA         30.7526    2.6402   -9.5928 C.3       9 UNK         0.0264 
     56 CB         31.1852    3.9649  -10.2557 C.3       9 UNK        -0.1955 
     57 C          31.7107    1.4696   -9.8853 C.2       9 UNK         0.5031 
     58 O          32.8173    1.6819  -10.3840 O.2       9 UNK        -0.5390 
     59 N          31.2667    0.2487   -9.5575 N.am      10 UNK        -0.4204 
     60 CA         31.9980   -1.0051   -9.7705 C.3       10 UNK         0.0237 
     61 CB         30.9882   -2.0937  -10.1769 C.3       10 UNK        -0.1985 
     62 C          32.8454   -1.4095   -8.5455 C.2       10 UNK         0.4970 
     63 O          33.2304   -2.5733   -8.4242 O.2       10 UNK        -0.4914 
     64 N          33.1027   -0.4440   -7.6572 N.am      11 UNK        -0.4285 
     65 CA         33.8299   -0.5662   -6.3898 C.3       11 UNK         0.1007 
     66 C          35.3028   -1.0275   -6.5595 C.2       11 UNK         0.5703 
     67 N          35.8295   -1.7838   -5.6057 N.am      11 UNK        -0.7361 
     68 O          35.9833   -0.6696   -7.5195 O.2       11 UNK        -0.4986 
     69 C69        33.7565    0.7596   -5.5799 C.3       12 UNK        -0.0947 
     70 S70        32.0869    1.5084   -5.5331 S.3       12 UNK        -0.2240 
     71 C71        31.5381    1.1550   -3.8294 C.3       12 UNK         0.0194 
     72 H72        30.0634   -6.5435   -0.1214 H         1 UNK         0.0906 
     73 H73        28.4592   -7.2615   -0.2879 H         1 UNK         0.0906 
     74 H74        28.9406   -6.5195    1.2396 H         1 UNK         0.0906 
     75 H75        27.9919   -4.5482    1.5244 H         1 UNK         0.3140 
     76 H76        27.2156   -2.5307    1.3558 H         1 UNK         0.1085 
     77 H77        27.9476   -0.9180   -0.3942 H         1 UNK         0.0836 
     78 H78        28.6580   -2.2017   -1.3143 H         1 UNK         0.0836 
     79 H79        32.2126   -2.2325    0.1002 H         1 UNK         0.0731 
     80 H80        31.1046   -3.5419   -0.2208 H         1 UNK         0.0731 
     81 H81        31.6200    0.0195   -1.3885 H         1 UNK         0.1312 
     82 H82        30.9441   -0.9875   -5.5026 H         1 UNK         0.1406 
     83 H83        30.8069   -4.0339   -2.4964 H         1 UNK         0.1631 
     84 H84        29.9868   -4.5158   -4.7198 H         1 UNK         0.0717 
     85 H85        31.5681   -4.1947   -5.3924 H         1 UNK         0.0717 
     86 H86        27.5808   -3.6272   -6.0935 H         1 UNK         0.0934 
     87 H87        28.2251   -2.3324   -5.1230 H         1 UNK         0.0934 
     88 H88        27.6629   -2.0249   -8.1207 H         1 UNK         0.0739 
     89 H89        25.7228   -1.9937   -5.9904 H         1 UNK         0.3093 
     90 H90        23.2202   -0.2207   -7.7932 H         1 UNK         0.0818 
     91 H91        23.1227   -2.4669   -8.8863 H         1 UNK         0.0819 
     92 H92        23.4137   -3.2484   -7.3386 H         1 UNK         0.0819 
     93 H93        21.9316   -2.3288   -7.6050 H         1 UNK         0.0819 
     94 H94        23.0639   -1.7172   -5.3882 H         1 UNK         0.3041 
     95 H95        24.4693    0.6366   -3.1593 H         1 UNK         0.0784 
     96 H96        22.1949    1.6031   -3.5663 H         1 UNK         0.0793 
     97 H97        21.5019   -0.0126   -3.5908 H         1 UNK         0.0793 
     98 H98        22.2255    0.6218   -2.1118 H         1 UNK         0.0793 
     99 H99        23.0832   -1.6893   -2.5193 H         1 UNK         0.3024 
    100 H100       23.9932   -3.6019   -1.9882 H         1 UNK         0.1171 
    101 H101       26.0244   -4.5300   -4.0995 H         1 UNK         0.0786 
    102 H102       25.0421   -5.5762   -3.0778 H         1 UNK         0.0786 
    103 H103       24.2756   -4.5632   -4.2912 H         1 UNK         0.0786 
    104 H104       26.8795   -4.0335   -1.8585 H         1 UNK         0.2977 
    105 H105       26.9824    0.0706   -5.3287 H         1 UNK         0.3127 
    106 H106       29.1321    1.9237   -5.7543 H         1 UNK         0.0770 
    107 H107       27.8786    3.3323   -4.1312 H         1 UNK         0.0814 
    108 H108       26.4843    2.2678   -4.2442 H         1 UNK         0.0814 
    109 H109       27.9956    1.6772   -3.5543 H         1 UNK         0.0814 
    110 H110       25.6685    1.9143   -6.7366 H         1 UNK         0.2983 
    111 H111       25.6663    4.4058   -8.0711 H         1 UNK         0.0947 
    112 H112       23.9340    1.9294   -8.5835 H         1 UNK         0.0806 
    113 H113       23.5673    3.5635   -9.1172 H         1 UNK         0.0806 
    114 H114       23.5991    3.1924   -7.4003 H         1 UNK         0.0806 
    115 H115       26.3925    1.1222   -9.3391 H         1 UNK         0.3000 
    116 H116       26.9308    1.9871  -12.0380 H         1 UNK         0.0850 
    117 H117       27.8649   -0.3223  -12.2608 H         1 UNK         0.0810 
    118 H118       26.2979   -0.3553  -11.4685 H         1 UNK         0.0810 
    119 H119       27.7713   -0.5438  -10.5185 H         1 UNK         0.0810 
    120 H120       28.7351    2.2682   -9.1343 H         1 UNK         0.3040 
    121 H121       30.7758    2.7890   -8.5119 H         1 UNK         0.0766 
    122 H122       31.2398    3.8774  -11.3411 H         1 UNK         0.0812 
    123 H123       32.1709    4.2726   -9.9048 H         1 UNK         0.0812 
    124 H124       30.4906    4.7705  -10.0175 H         1 UNK         0.0812 
    125 H125       30.3750    0.1753   -9.0684 H         1 UNK         0.3205 
    126 H126       32.6971   -0.8807  -10.6000 H         1 UNK         0.0754 
    127 H127       31.4781   -3.0545  -10.3392 H         1 UNK         0.0769 
    128 H128       30.4818   -1.8302  -11.1056 H         1 UNK         0.0769 
    129 H129       30.2233   -2.2372   -9.4148 H         1 UNK         0.0769 
    130 H130       32.7538    0.4799   -7.8579 H         1 UNK         0.2981 
    131 H131       33.3219   -1.3456   -5.8229 H         1 UNK         0.0541 
    132 H132       36.7896   -2.0791   -5.6897 H         1 UNK         0.3459 
    133 H133       35.2860   -2.0694   -4.8062 H         1 UNK         0.3459 
    134 H134       34.4246    1.5052   -6.0155 H         1 UNK         0.0612 
    135 H135       34.1089    0.5989   -4.5596 H         1 UNK         0.0612 
    136 H136       32.2626    1.5955   -3.1426 H         1 UNK         0.0624 
    137 H137       30.5967    1.6777   -3.6593 H         1 UNK         0.0624 
@<TRIPOS>BOND
     1    1    2 1    
     2    1   72 1    
     3    1   73 1    
     4    1   74 1    
     5    2    3 2    
     6    2    4 am   BACKBONE|DICT|INTERRES
     7    4    5 1    
     8    4   75 1    
     9    5    6 1    
    10    5   35 1    
    11    5   76 1    
    12    6    7 1    
    13    6   77 1    
    14    6   78 1    
    15    7    8 1    
    16    8    9 1    
    17    8   79 1    
    18    8   80 1    
    19    9   10 ar   
    20    9   14 ar   
    21   10   11 ar   
    22   10   81 1    
    23   11   12 ar   
    24   11   71 1    
    25   12   13 ar   
    26   12   82 1    
    27   13   14 ar   
    28   13   15 1    
    29   14   83 1    
    30   15   16 1    
    31   15   84 1    
    32   15   85 1    
    33   16   17 1    
    34   17   18 1    
    35   17   86 1    
    36   17   87 1    
    37   18   19 1    
    38   18   37 1    
    39   18   88 1    
    40   19   20 am   BACKBONE|DICT|INTERRES
    41   19   89 1    
    42   20   21 2    
    43   20   22 1    
    44   22   23 1    
    45   22   24 1    
    46   22   90 1    
    47   23   91 1    
    48   23   92 1    
    49   23   93 1    
    50   24   25 am   BACKBONE|DICT|INTERRES
    51   24   94 1    
    52   25   26 2    
    53   25   27 1    
    54   27   28 1    
    55   27   29 1    
    56   27   95 1    
    57   28   96 1    
    58   28   97 1    
    59   28   98 1    
    60   29   30 am   BACKBONE|DICT|INTERRES
    61   29   99 1    
    62   30   31 2    
    63   30   32 1    
    64   32   33 1    
    65   32   34 1    
    66   32  100 1    
    67   33  101 1    
    68   33  102 1    
    69   33  103 1    
    70   34   35 am   BACKBONE|DICT|INTERRES
    71   34  104 1    
    72   35   36 2    
    73   37   38 2    
    74   37   39 am   BACKBONE|DICT|INTERRES
    75   39   40 1    
    76   39  105 1    
    77   40   41 1    
    78   40   42 1    
    79   40  106 1    
    80   41  107 1    
    81   41  108 1    
    82   41  109 1    
    83   42   43 2    
    84   42   44 am   BACKBONE|DICT|INTERRES
    85   44   45 1    
    86   44  110 1    
    87   45   46 1    
    88   45   47 1    
    89   45  111 1    
    90   46  112 1    
    91   46  113 1    
    92   46  114 1    
    93   47   48 2    
    94   47   49 am   BACKBONE|DICT|INTERRES
    95   49   50 1    
    96   49  115 1    
    97   50   51 1    
    98   50   52 1    
    99   50  116 1    
   100   51  117 1    
   101   51  118 1    
   102   51  119 1    
   103   52   53 2    
   104   52   54 am   BACKBONE|DICT|INTERRES
   105   54   55 1    
   106   54  120 1    
   107   55   56 1    
   108   55   57 1    
   109   55  121 1    
   110   56  122 1    
   111   56  123 1    
   112   56  124 1    
   113   57   58 2    
   114   57   59 am   BACKBONE|DICT|INTERRES
   115   59   60 1    
   116   59  125 1    
   117   60   61 1    
   118   60   62 1    
   119   60  126 1    
   120   61  127 1    
   121   61  128 1    
   122   61  129 1    
   123   62   63 2    
   124   62   64 am   BACKBONE|DICT|INTERRES
   125   64   65 1    
   126   64  130 1    
   127   65   66 1    
   128   65   69 1    
   129   65  131 1    
   130   66   67 am   BACKBONE|DICT|INTERRES
   131   66   68 2    
   132   67  132 1    
   133   67  133 1    
   134   69   70 1    
   135   69  134 1    
   136   69  135 1    
   137   70   71 1    
   138   71  136 1    
   139   71  137 1    
@<TRIPOS>SUBSTRUCTURE
     1 UNK         1 GROUP             0       ****    0 ROOT    
