@<TRIPOS>MOLECULE
3R137
137   139    1
SMALL
USER_CHARGES


@<TRIPOS>ATOM
      1 CA         26.8088   -6.5919   -4.0739 C.3       0 UNK        -0.2020 
      2 C          26.3225   -5.6647   -2.9711 C.2       0 UNK         0.4855 
      3 O          25.1372   -5.3345   -2.9288 O.2       0 UNK        -0.5197 
      4 N          27.2234   -5.2399   -2.0744 N.am      1 UNK        -0.4892 
      5 CA         26.9222   -4.3279   -0.9638 C.3       1 UNK         0.0835 
      6 C6         28.0501   -4.3432    0.1190 C.3       12 UNK        -0.0855 
      7 S7         29.1731   -2.9045    0.2348 S.3       12 UNK        -0.2931 
      8 C8         30.2205   -3.1513   -1.2422 C.3       12 UNK         0.0378 
      9 C9         30.7083   -1.8730   -1.9287 C.ar      12 UNK        -0.0802 
     10 C10        31.5440   -2.0033   -3.0401 C.ar      12 UNK        -0.0944 
     11 C11        31.9971   -0.8810   -3.7406 C.ar      12 UNK        -0.0787 
     12 C12        31.6202    0.3956   -3.3103 C.ar      12 UNK        -0.0862 
     13 C13        30.7940    0.5473   -2.1921 C.ar      12 UNK        -0.0733 
     14 C14        30.3418   -0.5870   -1.5110 C.ar      12 UNK        -0.0832 
     15 C15        30.3971    1.9319   -1.6921 C.3       12 UNK         0.0240 
     16 S16        29.2191    2.7949   -2.7845 S.3       12 UNK        -0.2522 
     17 C17        27.9335    1.5368   -3.1032 C.3       12 UNK        -0.0967 
     18 CA         27.9782    1.0928   -4.5880 C.3       5 UNK         0.0660 
     19 N          27.7130   -0.3357   -4.7677 N.am      5 UNK        -0.4015 
     20 C          27.9372   -0.9990   -5.9124 C.2       4 UNK         0.4946 
     21 O          28.4603   -0.4986   -6.9079 O.2       4 UNK        -0.5353 
     22 CA         27.4427   -2.4509   -5.9775 C.3       4 UNK         0.0277 
     23 CB         28.4912   -3.4148   -5.4000 C.3       4 UNK        -0.1981 
     24 N          26.1589   -2.6126   -5.2888 N.am      4 UNK        -0.4209 
     25 C          24.9961   -2.1407   -5.7661 C.2       3 UNK         0.4942 
     26 O          24.8818   -1.5969   -6.8645 O.2       3 UNK        -0.5208 
     27 CA         23.7566   -2.2558   -4.8611 C.3       3 UNK         0.0250 
     28 CB         23.0144   -3.5754   -5.1230 C.3       3 UNK        -0.1990 
     29 N          24.0688   -2.1318   -3.4346 N.am      3 UNK        -0.4232 
     30 C          24.5032   -1.0018   -2.8550 C.2       2 UNK         0.4993 
     31 O          24.6602    0.0569   -3.4605 O.2       2 UNK        -0.5286 
     32 CA         24.8878   -1.0667   -1.3656 C.3       2 UNK         0.0209 
     33 CB         23.6796   -0.7172   -0.4828 C.3       2 UNK        -0.1931 
     34 N          25.4472   -2.3566   -0.9457 N.am      2 UNK        -0.4546 
     35 C          26.5191   -2.9353   -1.5045 C.2       1 UNK         0.5154 
     36 O          27.1487   -2.4306   -2.4398 O.2       1 UNK        -0.5181 
     37 C          27.0614    1.9618   -5.4744 C.2       5 UNK         0.5014 
     38 O          27.5537    2.8665   -6.1496 O.2       5 UNK        -0.5248 
     39 N          25.7550    1.6499   -5.4873 N.am      6 UNK        -0.4434 
     40 CA         24.7310    2.3181   -6.2989 C.3       6 UNK         0.0363 
     41 CB         23.3465    1.7384   -5.9726 C.3       6 UNK        -0.1936 
     42 C          24.9963    2.2480   -7.8117 C.2       6 UNK         0.5081 
     43 O          24.6872    3.2056   -8.5216 O.2       6 UNK        -0.5248 
     44 N          25.6241    1.1598   -8.2777 N.am      7 UNK        -0.4718 
     45 CA         26.1317    0.9849   -9.6423 C.3       7 UNK         0.0273 
     46 CB         26.3045   -0.5210   -9.9145 C.3       7 UNK        -0.1935 
     47 C          27.4314    1.7837   -9.8921 C.2       7 UNK         0.5018 
     48 O          28.4146    1.2227  -10.3783 O.2       7 UNK        -0.5186 
     49 N          27.4223    3.0755   -9.5268 N.am      8 UNK        -0.4240 
     50 CA         28.4968    4.0725   -9.6524 C.3       8 UNK         0.0235 
     51 CB         28.6566    4.4782  -11.1328 C.3       8 UNK        -0.2000 
     52 C          29.8427    3.6571   -9.0180 C.2       8 UNK         0.4941 
     53 O          30.8895    4.1438   -9.4500 O.2       8 UNK        -0.5273 
     54 N          29.7964    2.7452   -8.0341 N.am      9 UNK        -0.4262 
     55 CA         30.9233    2.0359   -7.4175 C.3       9 UNK         0.0264 
     56 CB         31.7091    2.9783   -6.4828 C.3       9 UNK        -0.1955 
     57 C          31.8263    1.3019   -8.4335 C.2       9 UNK         0.5031 
     58 O          33.0262    1.1567   -8.1858 O.2       9 UNK        -0.5390 
     59 N          31.2538    0.8416   -9.5587 N.am      10 UNK        -0.4204 
     60 CA         31.9557    0.1644  -10.6556 C.3       10 UNK         0.0237 
     61 CB         31.1309    0.3090  -11.9480 C.3       10 UNK        -0.1985 
     62 C          32.2816   -1.3040  -10.3190 C.2       10 UNK         0.4970 
     63 O          31.8753   -2.2166  -11.0409 O.2       10 UNK        -0.4914 
     64 N          33.0005   -1.4978   -9.2112 N.am      11 UNK        -0.4285 
     65 CA         33.3865   -2.7987   -8.6507 C.3       11 UNK         0.1007 
     66 C          34.5896   -3.4799   -9.3653 C.2       11 UNK         0.5703 
     67 N          35.2863   -2.8171  -10.2815 N.am      11 UNK        -0.7361 
     68 O          34.8908   -4.6389   -9.0896 O.2       11 UNK        -0.4986 
     69 C69        33.6236   -2.6934   -7.1226 C.3       12 UNK        -0.0947 
     70 S70        32.1506   -2.0911   -6.2292 S.3       12 UNK        -0.2240 
     71 C71        32.9192   -1.0628   -4.9385 C.3       12 UNK         0.0194 
     72 H72        27.8953   -6.6762   -4.0869 H         1 UNK         0.0906 
     73 H73        26.3908   -7.5885   -3.9349 H         1 UNK         0.0906 
     74 H74        26.4846   -6.2213   -5.0461 H         1 UNK         0.0906 
     75 H75        28.1883   -5.5212   -2.1674 H         1 UNK         0.3140 
     76 H76        26.0329   -4.7465   -0.4857 H         1 UNK         0.1085 
     77 H77        28.6536   -5.2495    0.0443 H         1 UNK         0.0836 
     78 H78        27.5750   -4.4170    1.0987 H         1 UNK         0.0836 
     79 H79        29.6647   -3.7277   -1.9818 H         1 UNK         0.0731 
     80 H80        31.0801   -3.7595   -0.9573 H         1 UNK         0.0731 
     81 H81        31.8377   -2.9896   -3.3734 H         1 UNK         0.1312 
     82 H82        31.9713    1.2721   -3.8365 H         1 UNK         0.1406 
     83 H83        29.6964   -0.4526   -0.6556 H         1 UNK         0.1631 
     84 H84        31.2930    2.5458   -1.5900 H         1 UNK         0.0717 
     85 H85        29.9604    1.8698   -0.6941 H         1 UNK         0.0717 
     86 H86        28.0839    0.6870   -2.4378 H         1 UNK         0.0934 
     87 H87        26.9582    1.9410   -2.8233 H         1 UNK         0.0934 
     88 H88        28.9968    1.2363   -4.9546 H         1 UNK         0.0739 
     89 H89        27.3163   -0.8409   -3.9844 H         1 UNK         0.3093 
     90 H90        27.2990   -2.7044   -7.0303 H         1 UNK         0.0818 
     91 H91        28.1687   -4.4508   -5.4854 H         1 UNK         0.0819 
     92 H92        29.4316   -3.3283   -5.9446 H         1 UNK         0.0819 
     93 H93        28.7081   -3.2093   -4.3519 H         1 UNK         0.0819 
     94 H94        26.1890   -2.9812   -4.3462 H         1 UNK         0.3041 
     95 H95        23.0824   -1.4378   -5.1221 H         1 UNK         0.0784 
     96 H96        22.7124   -3.6488   -6.1688 H         1 UNK         0.0793 
     97 H97        23.6375   -4.4429   -4.9054 H         1 UNK         0.0793 
     98 H98        22.1097   -3.6504   -4.5196 H         1 UNK         0.0793 
     99 H99        24.0070   -2.9735   -2.8774 H         1 UNK         0.3024 
    100 H100       25.6599   -0.3109   -1.2043 H         1 UNK         0.1171 
    101 H101       23.9609   -0.6517    0.5685 H         1 UNK         0.0786 
    102 H102       23.2584    0.2494   -0.7634 H         1 UNK         0.0786 
    103 H103       22.8842   -1.4580   -0.5735 H         1 UNK         0.0786 
    104 H104       24.9748   -2.8277   -0.1872 H         1 UNK         0.2977 
    105 H105       25.4180    0.9346   -4.8433 H         1 UNK         0.3127 
    106 H106       24.7343    3.3727   -6.0162 H         1 UNK         0.0770 
    107 H107       23.2844    0.6814   -6.2311 H         1 UNK         0.0814 
    108 H108       22.5654    2.2565   -6.5305 H         1 UNK         0.0814 
    109 H109       23.1100    1.8414   -4.9135 H         1 UNK         0.0814 
    110 H110       25.8274    0.4119   -7.6259 H         1 UNK         0.2983 
    111 H111       25.3856    1.3666  -10.3425 H         1 UNK         0.0947 
    112 H112       27.0563   -0.9630   -9.2594 H         1 UNK         0.0806 
    113 H113       26.6198   -0.7011  -10.9430 H         1 UNK         0.0806 
    114 H114       25.3703   -1.0620   -9.7622 H         1 UNK         0.0806 
    115 H115       26.5568    3.4142   -9.1162 H         1 UNK         0.3000 
    116 H116       28.1628    4.9506   -9.0978 H         1 UNK         0.0850 
    117 H117       29.3500    5.3131  -11.2416 H         1 UNK         0.0810 
    118 H118       27.7062    4.7930  -11.5636 H         1 UNK         0.0810 
    119 H119       29.0414    3.6538  -11.7345 H         1 UNK         0.0810 
    120 H120       28.8783    2.4745   -7.6959 H         1 UNK         0.3040 
    121 H121       30.4886    1.2507   -6.7992 H         1 UNK         0.0766 
    122 H122       32.4927    2.4406   -5.9485 H         1 UNK         0.0812 
    123 H123       31.0552    3.4243   -5.7330 H         1 UNK         0.0812 
    124 H124       32.1890    3.7859   -7.0361 H         1 UNK         0.0812 
    125 H125       30.2540    0.9803   -9.6892 H         1 UNK         0.3205 
    126 H126       32.9078    0.6738  -10.8181 H         1 UNK         0.0754 
    127 H127       31.6635   -0.1114  -12.8020 H         1 UNK         0.0769 
    128 H128       30.9289    1.3562  -12.1745 H         1 UNK         0.0769 
    129 H129       30.1727   -0.2068  -11.8740 H         1 UNK         0.0769 
    130 H130       33.2624   -0.6764   -8.6732 H         1 UNK         0.2981 
    131 H131       32.5435   -3.4767   -8.7982 H         1 UNK         0.0541 
    132 H132       36.0596   -3.2727  -10.7399 H         1 UNK         0.3459 
    133 H133       35.0474   -1.8671  -10.5152 H         1 UNK         0.3459 
    134 H134       33.8856   -3.6662   -6.7025 H         1 UNK         0.0612 
    135 H135       34.4682   -2.0319   -6.9209 H         1 UNK         0.0612 
    136 H136       33.8404   -1.5352   -4.5948 H         1 UNK         0.0624 
    137 H137       33.1994   -0.1019   -5.3730 H         1 UNK         0.0624 
@<TRIPOS>BOND
     1    1    2 1    
     2    1   72 1    
     3    1   73 1    
     4    1   74 1    
     5    2    3 2    
     6    2    4 am   BACKBONE|DICT|INTERRES
     7    4    5 1    
     8    4   75 1    
     9    5    6 1    
    10    5   35 1    
    11    5   76 1    
    12    6    7 1    
    13    6   77 1    
    14    6   78 1    
    15    7    8 1    
    16    8    9 1    
    17    8   79 1    
    18    8   80 1    
    19    9   10 ar   
    20    9   14 ar   
    21   10   11 ar   
    22   10   81 1    
    23   11   12 ar   
    24   11   71 1    
    25   12   13 ar   
    26   12   82 1    
    27   13   14 ar   
    28   13   15 1    
    29   14   83 1    
    30   15   16 1    
    31   15   84 1    
    32   15   85 1    
    33   16   17 1    
    34   17   18 1    
    35   17   86 1    
    36   17   87 1    
    37   18   19 1    
    38   18   37 1    
    39   18   88 1    
    40   19   20 am   BACKBONE|DICT|INTERRES
    41   19   89 1    
    42   20   21 2    
    43   20   22 1    
    44   22   23 1    
    45   22   24 1    
    46   22   90 1    
    47   23   91 1    
    48   23   92 1    
    49   23   93 1    
    50   24   25 am   BACKBONE|DICT|INTERRES
    51   24   94 1    
    52   25   26 2    
    53   25   27 1    
    54   27   28 1    
    55   27   29 1    
    56   27   95 1    
    57   28   96 1    
    58   28   97 1    
    59   28   98 1    
    60   29   30 am   BACKBONE|DICT|INTERRES
    61   29   99 1    
    62   30   31 2    
    63   30   32 1    
    64   32   33 1    
    65   32   34 1    
    66   32  100 1    
    67   33  101 1    
    68   33  102 1    
    69   33  103 1    
    70   34   35 am   BACKBONE|DICT|INTERRES
    71   34  104 1    
    72   35   36 2    
    73   37   38 2    
    74   37   39 am   BACKBONE|DICT|INTERRES
    75   39   40 1    
    76   39  105 1    
    77   40   41 1    
    78   40   42 1    
    79   40  106 1    
    80   41  107 1    
    81   41  108 1    
    82   41  109 1    
    83   42   43 2    
    84   42   44 am   BACKBONE|DICT|INTERRES
    85   44   45 1    
    86   44  110 1    
    87   45   46 1    
    88   45   47 1    
    89   45  111 1    
    90   46  112 1    
    91   46  113 1    
    92   46  114 1    
    93   47   48 2    
    94   47   49 am   BACKBONE|DICT|INTERRES
    95   49   50 1    
    96   49  115 1    
    97   50   51 1    
    98   50   52 1    
    99   50  116 1    
   100   51  117 1    
   101   51  118 1    
   102   51  119 1    
   103   52   53 2    
   104   52   54 am   BACKBONE|DICT|INTERRES
   105   54   55 1    
   106   54  120 1    
   107   55   56 1    
   108   55   57 1    
   109   55  121 1    
   110   56  122 1    
   111   56  123 1    
   112   56  124 1    
   113   57   58 2    
   114   57   59 am   BACKBONE|DICT|INTERRES
   115   59   60 1    
   116   59  125 1    
   117   60   61 1    
   118   60   62 1    
   119   60  126 1    
   120   61  127 1    
   121   61  128 1    
   122   61  129 1    
   123   62   63 2    
   124   62   64 am   BACKBONE|DICT|INTERRES
   125   64   65 1    
   126   64  130 1    
   127   65   66 1    
   128   65   69 1    
   129   65  131 1    
   130   66   67 am   BACKBONE|DICT|INTERRES
   131   66   68 2    
   132   67  132 1    
   133   67  133 1    
   134   69   70 1    
   135   69  134 1    
   136   69  135 1    
   137   70   71 1    
   138   71  136 1    
   139   71  137 1    
@<TRIPOS>SUBSTRUCTURE
     1 UNK         1 GROUP             0       ****    0 ROOT    
