@<TRIPOS>MOLECULE
3R137
137   139    1
SMALL
USER_CHARGES


@<TRIPOS>ATOM
      1 CA         26.2453   -6.4537   -4.9242 C.3       0 UNK        -0.2020 
      2 C          26.0584   -5.5882   -3.6873 C.2       0 UNK         0.4855 
      3 O          24.9248   -5.3753   -3.2550 O.2       0 UNK        -0.5197 
      4 N          27.1615   -5.0904   -3.1140 N.am      1 UNK        -0.4892 
      5 CA         27.1790   -4.1756   -1.9674 C.3       1 UNK         0.0835 
      6 C6         28.6218   -3.8540   -1.5133 C.3       12 UNK        -0.0855 
      7 S7         29.6818   -5.2729   -1.0748 S.3       12 UNK        -0.2931 
      8 C8         31.1019   -4.4196   -0.2885 C.3       12 UNK         0.0378 
      9 C9         31.7311   -3.3791   -1.2103 C.ar      12 UNK        -0.0802 
     10 C10        32.7745   -3.7222   -2.0748 C.ar      12 UNK        -0.0944 
     11 C11        33.2794   -2.7841   -2.9825 C.ar      12 UNK        -0.0787 
     12 C12        32.7076   -1.5077   -3.0480 C.ar      12 UNK        -0.0862 
     13 C13        31.6502   -1.1606   -2.2022 C.ar      12 UNK        -0.0733 
     14 C14        31.2228   -2.0774   -1.2378 C.ar      12 UNK        -0.0832 
     15 C15        30.9009    0.1567   -2.3823 C.3       12 UNK         0.0240 
     16 S16        29.1304   -0.1817   -2.6669 S.3       12 UNK        -0.2522 
     17 C17        28.4399    1.3811   -3.2964 C.3       12 UNK        -0.0967 
     18 CA         28.0929    1.3207   -4.8089 C.3       5 UNK         0.0660 
     19 N          27.3830    0.0989   -5.2107 N.am      5 UNK        -0.4015 
     20 C          27.1520   -0.2609   -6.4824 C.2       4 UNK         0.4946 
     21 O          27.5682    0.3666   -7.4570 O.2       4 UNK        -0.5353 
     22 CA         26.2763   -1.5026   -6.7109 C.3       4 UNK         0.0277 
     23 CB         27.1194   -2.7889   -6.6963 C.3       4 UNK        -0.1981 
     24 N          25.2085   -1.6013   -5.7153 N.am      4 UNK        -0.4209 
     25 C          24.1086   -0.8358   -5.7041 C.2       3 UNK         0.4942 
     26 O          23.8588    0.0113   -6.5601 O.2       3 UNK        -0.5208 
     27 CA         23.1374   -1.0187   -4.5241 C.3       3 UNK         0.0250 
     28 CB         22.1620   -2.1730   -4.8034 C.3       3 UNK        -0.1990 
     29 N          23.8142   -1.2504   -3.2457 N.am      3 UNK        -0.4232 
     30 C          24.6228   -0.3667   -2.6450 C.2       2 UNK         0.4993 
     31 O          24.8577    0.7584   -3.0864 O.2       2 UNK        -0.5286 
     32 CA         25.3370   -0.8311   -1.3636 C.3       2 UNK         0.0209 
     33 CB         24.4519   -0.5702   -0.1344 C.3       2 UNK        -0.1931 
     34 N          25.7964   -2.2297   -1.3490 N.am      2 UNK        -0.4546 
     35 C          26.5035   -2.8328   -2.3167 C.2       1 UNK         0.5154 
     36 O          26.7036   -2.3376   -3.4274 O.2       1 UNK        -0.5181 
     37 C          27.3055    2.5745   -5.2410 C.2       5 UNK         0.5014 
     38 O          27.8882    3.4789   -5.8398 O.2       5 UNK        -0.5248 
     39 N          25.9890    2.5820   -4.9750 N.am      6 UNK        -0.4434 
     40 CA         25.0508    3.6329   -5.3820 C.3       6 UNK         0.0363 
     41 CB         23.6805    3.3762   -4.7354 C.3       6 UNK        -0.1936 
     42 C          24.9084    3.7678   -6.9083 C.2       6 UNK         0.5081 
     43 O          24.8075    4.8886   -7.4073 O.2       6 UNK        -0.5248 
     44 N          24.9310    2.6352   -7.6252 N.am      7 UNK        -0.4718 
     45 CA         24.9231    2.5751   -9.0913 C.3       7 UNK         0.0273 
     46 CB         24.5256    1.1575   -9.5345 C.3       7 UNK        -0.1935 
     47 C          26.2611    2.9794   -9.7414 C.2       7 UNK         0.5018 
     48 O          26.2949    3.1497  -10.9609 O.2       7 UNK        -0.5186 
     49 N          27.3253    3.1119   -8.9345 N.am      8 UNK        -0.4240 
     50 CA         28.7094    3.4049   -9.3173 C.3       8 UNK         0.0235 
     51 CB         28.8337    4.8191   -9.9246 C.3       8 UNK        -0.2000 
     52 C          29.3133    2.3000  -10.2041 C.2       8 UNK         0.4941 
     53 O          29.8834    2.5907  -11.2588 O.2       8 UNK        -0.5273 
     54 N          29.1677    1.0451   -9.7555 N.am      9 UNK        -0.4262 
     55 CA         29.7665   -0.1447  -10.3656 C.3       9 UNK         0.0264 
     56 CB         29.1647   -1.3914   -9.6958 C.3       9 UNK        -0.1955 
     57 C          31.3033   -0.1616  -10.2490 C.2       9 UNK         0.5031 
     58 O          31.8826    0.6245   -9.4944 O.2       9 UNK        -0.5390 
     59 N          31.9332   -1.1023  -10.9680 N.am      10 UNK        -0.4204 
     60 CA         33.3878   -1.2924  -11.0750 C.3       10 UNK         0.0237 
     61 CB         33.6683   -2.4708  -12.0228 C.3       10 UNK        -0.1985 
     62 C          34.1475   -1.4838   -9.7457 C.2       10 UNK         0.4970 
     63 O          35.3566   -1.2498   -9.7165 O.2       10 UNK        -0.4914 
     64 N          33.4432   -1.8833   -8.6779 N.am      11 UNK        -0.4285 
     65 CA         33.9581   -1.9026   -7.2995 C.3       11 UNK         0.1007 
     66 C          34.2533   -0.4855   -6.7163 C.2       11 UNK         0.5703 
     67 N          33.6710    0.5880   -7.2389 N.am      11 UNK        -0.7361 
     68 O          35.0389   -0.3522   -5.7829 O.2       11 UNK        -0.4986 
     69 C69        33.0312   -2.7319   -6.3592 C.3       12 UNK        -0.0947 
     70 S70        33.9168   -4.0162   -5.4098 S.3       12 UNK        -0.2240 
     71 C71        34.4420   -3.1531   -3.8925 C.3       12 UNK         0.0194 
     72 H72        25.8745   -7.4610   -4.7369 H         1 UNK         0.0906 
     73 H73        25.6877   -6.0351   -5.7616 H         1 UNK         0.0906 
     74 H74        27.2926   -6.5256   -5.2174 H         1 UNK         0.0906 
     75 H75        28.0677   -5.2975   -3.5087 H         1 UNK         0.3140 
     76 H76        26.6365   -4.6494   -1.1467 H         1 UNK         0.1085 
     77 H77        28.5903   -3.1885   -0.6484 H         1 UNK         0.0836 
     78 H78        29.1313   -3.3109   -2.3123 H         1 UNK         0.0836 
     79 H79        31.8471   -5.1629   -0.0013 H         1 UNK         0.0731 
     80 H80        30.7710   -3.9481    0.6383 H         1 UNK         0.0731 
     81 H81        33.1834   -4.7234   -2.0536 H         1 UNK         0.1312 
     82 H82        33.0679   -0.7961   -3.7783 H         1 UNK         0.1406 
     83 H83        30.4141   -1.8036   -0.5749 H         1 UNK         0.1631 
     84 H84        31.3009    0.7177   -3.2285 H         1 UNK         0.0717 
     85 H85        31.0214    0.7792   -1.4948 H         1 UNK         0.0717 
     86 H86        27.5485    1.5972   -2.7041 H         1 UNK         0.0934 
     87 H87        29.1393    2.1952   -3.0968 H         1 UNK         0.0934 
     88 H88        29.0368    1.3264   -5.3587 H         1 UNK         0.0739 
     89 H89        27.0630   -0.5110   -4.4661 H         1 UNK         0.3093 
     90 H90        25.8168   -1.4129   -7.6971 H         1 UNK         0.0818 
     91 H91        27.6751   -2.9056   -5.7656 H         1 UNK         0.0819 
     92 H92        26.4957   -3.6731   -6.8266 H         1 UNK         0.0819 
     93 H93        27.8468   -2.7883   -7.5068 H         1 UNK         0.0819 
     94 H94        25.4052   -2.1852   -4.9086 H         1 UNK         0.3041 
     95 H95        22.5589   -0.0970   -4.4305 H         1 UNK         0.0784 
     96 H96        21.6345   -2.0182   -5.7459 H         1 UNK         0.0793 
     97 H97        22.6785   -3.1316   -4.8718 H         1 UNK         0.0793 
     98 H98        21.4071   -2.2529   -4.0210 H         1 UNK         0.0793 
     99 H99        23.7032   -2.1610   -2.8230 H         1 UNK         0.3024 
    100 H100       26.2316   -0.2116   -1.2703 H         1 UNK         0.1171 
    101 H101       24.9961   -0.7488    0.7932 H         1 UNK         0.0786 
    102 H102       24.1104    0.4659   -0.1108 H         1 UNK         0.0786 
    103 H103       23.5656   -1.2059   -0.1328 H         1 UNK         0.0786 
    104 H104       25.6767   -2.7190   -0.4735 H         1 UNK         0.2977 
    105 H105       25.5960    1.8171   -4.4278 H         1 UNK         0.3127 
    106 H106       25.4351    4.5819   -5.0024 H         1 UNK         0.0770 
    107 H107       23.2584    2.4218   -5.0526 H         1 UNK         0.0814 
    108 H108       22.9675    4.1561   -5.0060 H         1 UNK         0.0814 
    109 H109       23.7513    3.3644   -3.6476 H         1 UNK         0.0814 
    110 H110       24.9382    1.7463   -7.1363 H         1 UNK         0.2983 
    111 H111       24.1655    3.2714   -9.4577 H         1 UNK         0.0947 
    112 H112       24.4690    1.0864  -10.6215 H         1 UNK         0.0806 
    113 H113       23.5477    0.8778   -9.1425 H         1 UNK         0.0806 
    114 H114       25.2493    0.4155   -9.1969 H         1 UNK         0.0806 
    115 H115       27.1839    2.9264   -7.9490 H         1 UNK         0.3000 
    116 H116       29.2860    3.3964   -8.3908 H         1 UNK         0.0850 
    117 H117       29.8795    5.0774  -10.0956 H         1 UNK         0.0810 
    118 H118       28.4183    5.5740   -9.2571 H         1 UNK         0.0810 
    119 H119       28.3203    4.8985  -10.8832 H         1 UNK         0.0810 
    120 H120       28.6562    0.8941   -8.8875 H         1 UNK         0.3040 
    121 H121       29.5032   -0.1477  -11.4252 H         1 UNK         0.0766 
    122 H122       28.0755   -1.3818   -9.7469 H         1 UNK         0.0812 
    123 H123       29.4497   -1.4503   -8.6446 H         1 UNK         0.0812 
    124 H124       29.4995   -2.3101  -10.1784 H         1 UNK         0.0812 
    125 H125       31.3690   -1.7138  -11.5409 H         1 UNK         0.3205 
    126 H126       33.7898   -0.3864  -11.5330 H         1 UNK         0.0754 
    127 H127       34.7409   -2.6219  -12.1546 H         1 UNK         0.0769 
    128 H128       33.2468   -2.2953  -13.0129 H         1 UNK         0.0769 
    129 H129       33.2530   -3.4039  -11.6396 H         1 UNK         0.0769 
    130 H130       32.4542   -2.0420   -8.7901 H         1 UNK         0.2981 
    131 H131       34.9269   -2.4030   -7.3541 H         1 UNK         0.0541 
    132 H132       33.8837    1.4940   -6.8550 H         1 UNK         0.3459 
    133 H133       33.0337    0.5148   -8.0290 H         1 UNK         0.3459 
    134 H134       32.4428   -2.1022   -5.6918 H         1 UNK         0.0612 
    135 H135       32.2850   -3.2718   -6.9442 H         1 UNK         0.0612 
    136 H136       35.0257   -2.2704   -4.1474 H         1 UNK         0.0624 
    137 H137       35.1260   -3.8074   -3.3501 H         1 UNK         0.0624 
@<TRIPOS>BOND
     1    1    2 1    
     2    1   72 1    
     3    1   73 1    
     4    1   74 1    
     5    2    3 2    
     6    2    4 am   BACKBONE|DICT|INTERRES
     7    4    5 1    
     8    4   75 1    
     9    5    6 1    
    10    5   35 1    
    11    5   76 1    
    12    6    7 1    
    13    6   77 1    
    14    6   78 1    
    15    7    8 1    
    16    8    9 1    
    17    8   79 1    
    18    8   80 1    
    19    9   10 ar   
    20    9   14 ar   
    21   10   11 ar   
    22   10   81 1    
    23   11   12 ar   
    24   11   71 1    
    25   12   13 ar   
    26   12   82 1    
    27   13   14 ar   
    28   13   15 1    
    29   14   83 1    
    30   15   16 1    
    31   15   84 1    
    32   15   85 1    
    33   16   17 1    
    34   17   18 1    
    35   17   86 1    
    36   17   87 1    
    37   18   19 1    
    38   18   37 1    
    39   18   88 1    
    40   19   20 am   BACKBONE|DICT|INTERRES
    41   19   89 1    
    42   20   21 2    
    43   20   22 1    
    44   22   23 1    
    45   22   24 1    
    46   22   90 1    
    47   23   91 1    
    48   23   92 1    
    49   23   93 1    
    50   24   25 am   BACKBONE|DICT|INTERRES
    51   24   94 1    
    52   25   26 2    
    53   25   27 1    
    54   27   28 1    
    55   27   29 1    
    56   27   95 1    
    57   28   96 1    
    58   28   97 1    
    59   28   98 1    
    60   29   30 am   BACKBONE|DICT|INTERRES
    61   29   99 1    
    62   30   31 2    
    63   30   32 1    
    64   32   33 1    
    65   32   34 1    
    66   32  100 1    
    67   33  101 1    
    68   33  102 1    
    69   33  103 1    
    70   34   35 am   BACKBONE|DICT|INTERRES
    71   34  104 1    
    72   35   36 2    
    73   37   38 2    
    74   37   39 am   BACKBONE|DICT|INTERRES
    75   39   40 1    
    76   39  105 1    
    77   40   41 1    
    78   40   42 1    
    79   40  106 1    
    80   41  107 1    
    81   41  108 1    
    82   41  109 1    
    83   42   43 2    
    84   42   44 am   BACKBONE|DICT|INTERRES
    85   44   45 1    
    86   44  110 1    
    87   45   46 1    
    88   45   47 1    
    89   45  111 1    
    90   46  112 1    
    91   46  113 1    
    92   46  114 1    
    93   47   48 2    
    94   47   49 am   BACKBONE|DICT|INTERRES
    95   49   50 1    
    96   49  115 1    
    97   50   51 1    
    98   50   52 1    
    99   50  116 1    
   100   51  117 1    
   101   51  118 1    
   102   51  119 1    
   103   52   53 2    
   104   52   54 am   BACKBONE|DICT|INTERRES
   105   54   55 1    
   106   54  120 1    
   107   55   56 1    
   108   55   57 1    
   109   55  121 1    
   110   56  122 1    
   111   56  123 1    
   112   56  124 1    
   113   57   58 2    
   114   57   59 am   BACKBONE|DICT|INTERRES
   115   59   60 1    
   116   59  125 1    
   117   60   61 1    
   118   60   62 1    
   119   60  126 1    
   120   61  127 1    
   121   61  128 1    
   122   61  129 1    
   123   62   63 2    
   124   62   64 am   BACKBONE|DICT|INTERRES
   125   64   65 1    
   126   64  130 1    
   127   65   66 1    
   128   65   69 1    
   129   65  131 1    
   130   66   67 am   BACKBONE|DICT|INTERRES
   131   66   68 2    
   132   67  132 1    
   133   67  133 1    
   134   69   70 1    
   135   69  134 1    
   136   69  135 1    
   137   70   71 1    
   138   71  136 1    
   139   71  137 1    
@<TRIPOS>SUBSTRUCTURE
     1 UNK         1 GROUP             0       ****    0 ROOT    
