@<TRIPOS>MOLECULE
3R137
137   139    1
SMALL
USER_CHARGES


@<TRIPOS>ATOM
      1 CA         27.6039   -3.4413    3.4097 C.3       0 UNK        -0.2020 
      2 C          27.9673   -2.4245    2.3377 C.2       0 UNK         0.4855 
      3 O          28.1014   -1.2380    2.6400 O.2       0 UNK        -0.5197 
      4 N          28.1375   -2.8809    1.0910 N.am      1 UNK        -0.4892 
      5 CA         28.4396   -2.0403   -0.0742 C.3       1 UNK         0.0835 
      6 C6         28.9787   -2.8725   -1.2628 C.3       12 UNK        -0.0855 
      7 S7         30.5492   -3.6948   -0.8425 S.3       12 UNK        -0.2931 
      8 C8         30.5682   -5.0557   -2.0502 C.3       12 UNK         0.0378 
      9 C9         30.7624   -4.5648   -3.4794 C.ar      12 UNK        -0.0802 
     10 C10        31.9210   -3.8633   -3.8279 C.ar      12 UNK        -0.0944 
     11 C11        32.1476   -3.4718   -5.1494 C.ar      12 UNK        -0.0787 
     12 C12        31.1964   -3.7903   -6.1241 C.ar      12 UNK        -0.0862 
     13 C13        30.0239   -4.4796   -5.7961 C.ar      12 UNK        -0.0733 
     14 C14        29.8154   -4.8646   -4.4649 C.ar      12 UNK        -0.0832 
     15 C15        29.0625   -4.8529   -6.9273 C.3       12 UNK         0.0240 
     16 S16        27.3430   -5.2472   -6.4433 S.3       12 UNK        -0.2522 
     17 C17        26.6949   -3.6492   -5.8504 C.3       12 UNK        -0.0967 
     18 CA         26.4346   -2.6291   -6.9981 C.3       5 UNK         0.0660 
     19 N          25.1266   -1.9754   -6.8920 N.am      5 UNK        -0.4015 
     20 C          24.6037   -1.1181   -7.7846 C.2       4 UNK         0.4946 
     21 O          25.1726   -0.7586   -8.8139 O.2       4 UNK        -0.5353 
     22 CA         23.2108   -0.5436   -7.4746 C.3       4 UNK         0.0277 
     23 CB         22.1191   -1.3873   -8.1517 C.3       4 UNK        -0.1981 
     24 N          22.9381   -0.4493   -6.0397 N.am      4 UNK        -0.4209 
     25 C          23.5905    0.3631   -5.1976 C.2       3 UNK         0.4942 
     26 O          24.4305    1.1888   -5.5658 O.2       3 UNK        -0.5208 
     27 CA         23.2404    0.2241   -3.7019 C.3       3 UNK         0.0250 
     28 CB         22.8073   -1.2063   -3.3031 C.3       3 UNK        -0.1990 
     29 N          24.3170    0.6798   -2.8168 N.am      3 UNK        -0.4232 
     30 C          25.5804    0.2309   -2.7626 C.2       2 UNK         0.4993 
     31 O          26.0475   -0.6299   -3.5184 O.2       2 UNK        -0.5286 
     32 CA         26.4863    0.8752   -1.6886 C.3       2 UNK         0.0209 
     33 CB         25.7137    1.5656   -0.5388 C.3       2 UNK        -0.1931 
     34 N          27.4679   -0.0708   -1.1442 N.am      2 UNK        -0.4546 
     35 C          27.2067   -1.2212   -0.5052 C.2       1 UNK         0.5154 
     36 O          26.0711   -1.6474   -0.2724 O.2       1 UNK        -0.5181 
     37 C          27.5696   -1.5971   -7.0977 C.2       5 UNK         0.5014 
     38 O          28.2640   -1.5517   -8.1152 O.2       5 UNK        -0.5248 
     39 N          27.7131   -0.7644   -6.0556 N.am      6 UNK        -0.4434 
     40 CA         28.7625    0.2510   -5.9908 C.3       6 UNK         0.0363 
     41 CB         28.8607    0.8188   -4.5702 C.3       6 UNK        -0.1936 
     42 C          28.5693    1.3806   -7.0100 C.2       6 UNK         0.5081 
     43 O          29.5671    1.9375   -7.4636 O.2       6 UNK        -0.5248 
     44 N          27.3136    1.6829   -7.3692 N.am      7 UNK        -0.4718 
     45 CA         26.9700    2.6543   -8.4078 C.3       7 UNK         0.0273 
     46 CB         25.4624    2.9493   -8.3685 C.3       7 UNK        -0.1935 
     47 C          27.4048    2.1924   -9.8085 C.2       7 UNK         0.5018 
     48 O          28.0192    2.9751  -10.5335 O.2       7 UNK        -0.5186 
     49 N          27.0983    0.9342  -10.1581 N.am      8 UNK        -0.4240 
     50 CA         27.4574    0.3282  -11.4421 C.3       8 UNK         0.0235 
     51 CB         26.6533   -0.9650  -11.6516 C.3       8 UNK        -0.2000 
     52 C          28.9624    0.0510  -11.5683 C.2       8 UNK         0.4941 
     53 O          29.5403    0.3302  -12.6195 O.2       8 UNK        -0.5273 
     54 N          29.5692   -0.4936  -10.5050 N.am      9 UNK        -0.4262 
     55 CA         30.9875   -0.8604  -10.4719 C.3       9 UNK         0.0264 
     56 CB         31.1870   -1.9498   -9.4103 C.3       9 UNK        -0.1955 
     57 C          31.9370    0.3248  -10.2147 C.2       9 UNK         0.5031 
     58 O          33.1418    0.1673  -10.4174 O.2       9 UNK        -0.5390 
     59 N          31.3943    1.4680   -9.7679 N.am      10 UNK        -0.4204 
     60 CA         32.0980    2.6854   -9.3427 C.3       10 UNK         0.0237 
     61 CB         32.8616    3.3362  -10.5167 C.3       10 UNK        -0.1985 
     62 C          32.9732    2.4501   -8.0940 C.2       10 UNK         0.4970 
     63 O          34.1000    2.9451   -8.0251 O.2       10 UNK        -0.4914 
     64 N          32.4261    1.7004   -7.1290 N.am      11 UNK        -0.4285 
     65 CA         33.0551    1.3935   -5.8322 C.3       11 UNK         0.1007 
     66 C          32.7302    2.4402   -4.7284 C.2       11 UNK         0.5703 
     67 N          31.8365    3.3965   -4.9572 N.am      11 UNK        -0.7361 
     68 O          33.3110    2.3923   -3.6469 O.2       11 UNK        -0.4986 
     69 C69        32.7381   -0.0498   -5.3500 C.3       12 UNK        -0.0947 
     70 S70        33.2544   -1.3076   -6.5631 S.3       12 UNK        -0.2240 
     71 C71        33.4618   -2.7926   -5.5272 C.3       12 UNK         0.0194 
     72 H72        28.3544   -3.4384    4.1997 H         1 UNK         0.0906 
     73 H73        26.6408   -3.1903    3.8532 H         1 UNK         0.0906 
     74 H74        27.5390   -4.4524    3.0081 H         1 UNK         0.0906 
     75 H75        28.0044   -3.8626    0.8959 H         1 UNK         0.3140 
     76 H76        29.2154   -1.3312    0.2248 H         1 UNK         0.1085 
     77 H77        29.1592   -2.2415   -2.1358 H         1 UNK         0.0836 
     78 H78        28.2445   -3.6192   -1.5721 H         1 UNK         0.0836 
     79 H79        31.3858   -5.7331   -1.7997 H         1 UNK         0.0731 
     80 H80        29.6503   -5.6375   -1.9523 H         1 UNK         0.0731 
     81 H81        32.6604   -3.6486   -3.0682 H         1 UNK         0.1312 
     82 H82        31.3873   -3.5250   -7.1533 H         1 UNK         0.1406 
     83 H83        28.9331   -5.4280   -4.1958 H         1 UNK         0.1631 
     84 H84        29.4714   -5.7301   -7.4302 H         1 UNK         0.0717 
     85 H85        29.0444   -4.0638   -7.6788 H         1 UNK         0.0717 
     86 H86        27.3526   -3.2613   -5.0693 H         1 UNK         0.0934 
     87 H87        25.7627   -3.8815   -5.3332 H         1 UNK         0.0934 
     88 H88        26.4122   -3.1660   -7.9492 H         1 UNK         0.0739 
     89 H89        24.5867   -2.1831   -6.0661 H         1 UNK         0.3093 
     90 H90        23.1693    0.4645   -7.8916 H         1 UNK         0.0818 
     91 H91        21.1315   -0.9484   -8.0086 H         1 UNK         0.0819 
     92 H92        22.2894   -1.4516   -9.2276 H         1 UNK         0.0819 
     93 H93        22.0944   -2.4069   -7.7649 H         1 UNK         0.0819 
     94 H94        22.2419   -1.0772   -5.6641 H         1 UNK         0.3041 
     95 H95        22.3967    0.8926   -3.5245 H         1 UNK         0.0784 
     96 H96        21.8768   -1.5000   -3.7897 H         1 UNK         0.0793 
     97 H97        23.5674   -1.9464   -3.5573 H         1 UNK         0.0793 
     98 H98        22.6315   -1.2762   -2.2293 H         1 UNK         0.0793 
     99 H99        24.0616    1.4179   -2.1765 H         1 UNK         0.3024 
    100 H100       27.0574    1.6497   -2.2009 H         1 UNK         0.1171 
    101 H101       26.3987    1.9486    0.2181 H         1 UNK         0.0786 
    102 H102       25.0248    0.8819   -0.0407 H         1 UNK         0.0786 
    103 H103       25.1375    2.4193   -0.8972 H         1 UNK         0.0786 
    104 H104       28.4346    0.1705   -1.3106 H         1 UNK         0.2977 
    105 H105       27.0807   -0.8270   -5.2611 H         1 UNK         0.3127 
    106 H106       29.7042   -0.2451   -6.2311 H         1 UNK         0.0770 
    107 H107       27.9670    1.3864   -4.3145 H         1 UNK         0.0814 
    108 H108       29.7105    1.4951   -4.4772 H         1 UNK         0.0814 
    109 H109       28.9903    0.0274   -3.8320 H         1 UNK         0.0814 
    110 H110       26.5484    1.1880   -6.9296 H         1 UNK         0.2983 
    111 H111       27.5023    3.5821   -8.1858 H         1 UNK         0.0947 
    112 H112       25.1933    3.7031   -9.1094 H         1 UNK         0.0806 
    113 H113       25.1578    3.3291   -7.3930 H         1 UNK         0.0806 
    114 H114       24.8702    2.0590   -8.5793 H         1 UNK         0.0806 
    115 H115       26.5600    0.3539   -9.5176 H         1 UNK         0.3000 
    116 H116       27.1817    1.0282  -12.2339 H         1 UNK         0.0850 
    117 H117       26.8957   -1.4270  -12.6095 H         1 UNK         0.0810 
    118 H118       25.5810   -0.7688  -11.6476 H         1 UNK         0.0810 
    119 H119       26.8599   -1.6990  -10.8712 H         1 UNK         0.0810 
    120 H120       29.0159   -0.7352   -9.6843 H         1 UNK         0.3040 
    121 H121       31.2593   -1.2855  -11.4406 H         1 UNK         0.0766 
    122 H122       32.2246   -2.2850   -9.3800 H         1 UNK         0.0812 
    123 H123       30.9307   -1.5805   -8.4171 H         1 UNK         0.0812 
    124 H124       30.5675   -2.8233   -9.6139 H         1 UNK         0.0812 
    125 H125       30.3968    1.4731   -9.5965 H         1 UNK         0.3205 
    126 H126       31.3212    3.3874   -9.0360 H         1 UNK         0.0754 
    127 H127       33.2586    4.3107  -10.2301 H         1 UNK         0.0769 
    128 H128       32.2083    3.4927  -11.3751 H         1 UNK         0.0769 
    129 H129       33.7050    2.7271  -10.8430 H         1 UNK         0.0769 
    130 H130       31.4592    1.4179   -7.2433 H         1 UNK         0.2981 
    131 H131       34.1376    1.4457   -5.9627 H         1 UNK         0.0541 
    132 H132       31.3513    3.4438   -5.8390 H         1 UNK         0.3459 
    133 H133       31.6447    4.0741   -4.2366 H         1 UNK         0.3459 
    134 H134       31.6760   -0.1742   -5.1437 H         1 UNK         0.0612 
    135 H135       33.2548   -0.2533   -4.4104 H         1 UNK         0.0612 
    136 H136       34.0667   -3.5113   -6.0813 H         1 UNK         0.0624 
    137 H137       34.0390   -2.5303   -4.6393 H         1 UNK         0.0624 
@<TRIPOS>BOND
     1    1    2 1    
     2    1   72 1    
     3    1   73 1    
     4    1   74 1    
     5    2    3 2    
     6    2    4 am   BACKBONE|DICT|INTERRES
     7    4    5 1    
     8    4   75 1    
     9    5    6 1    
    10    5   35 1    
    11    5   76 1    
    12    6    7 1    
    13    6   77 1    
    14    6   78 1    
    15    7    8 1    
    16    8    9 1    
    17    8   79 1    
    18    8   80 1    
    19    9   10 ar   
    20    9   14 ar   
    21   10   11 ar   
    22   10   81 1    
    23   11   12 ar   
    24   11   71 1    
    25   12   13 ar   
    26   12   82 1    
    27   13   14 ar   
    28   13   15 1    
    29   14   83 1    
    30   15   16 1    
    31   15   84 1    
    32   15   85 1    
    33   16   17 1    
    34   17   18 1    
    35   17   86 1    
    36   17   87 1    
    37   18   19 1    
    38   18   37 1    
    39   18   88 1    
    40   19   20 am   BACKBONE|DICT|INTERRES
    41   19   89 1    
    42   20   21 2    
    43   20   22 1    
    44   22   23 1    
    45   22   24 1    
    46   22   90 1    
    47   23   91 1    
    48   23   92 1    
    49   23   93 1    
    50   24   25 am   BACKBONE|DICT|INTERRES
    51   24   94 1    
    52   25   26 2    
    53   25   27 1    
    54   27   28 1    
    55   27   29 1    
    56   27   95 1    
    57   28   96 1    
    58   28   97 1    
    59   28   98 1    
    60   29   30 am   BACKBONE|DICT|INTERRES
    61   29   99 1    
    62   30   31 2    
    63   30   32 1    
    64   32   33 1    
    65   32   34 1    
    66   32  100 1    
    67   33  101 1    
    68   33  102 1    
    69   33  103 1    
    70   34   35 am   BACKBONE|DICT|INTERRES
    71   34  104 1    
    72   35   36 2    
    73   37   38 2    
    74   37   39 am   BACKBONE|DICT|INTERRES
    75   39   40 1    
    76   39  105 1    
    77   40   41 1    
    78   40   42 1    
    79   40  106 1    
    80   41  107 1    
    81   41  108 1    
    82   41  109 1    
    83   42   43 2    
    84   42   44 am   BACKBONE|DICT|INTERRES
    85   44   45 1    
    86   44  110 1    
    87   45   46 1    
    88   45   47 1    
    89   45  111 1    
    90   46  112 1    
    91   46  113 1    
    92   46  114 1    
    93   47   48 2    
    94   47   49 am   BACKBONE|DICT|INTERRES
    95   49   50 1    
    96   49  115 1    
    97   50   51 1    
    98   50   52 1    
    99   50  116 1    
   100   51  117 1    
   101   51  118 1    
   102   51  119 1    
   103   52   53 2    
   104   52   54 am   BACKBONE|DICT|INTERRES
   105   54   55 1    
   106   54  120 1    
   107   55   56 1    
   108   55   57 1    
   109   55  121 1    
   110   56  122 1    
   111   56  123 1    
   112   56  124 1    
   113   57   58 2    
   114   57   59 am   BACKBONE|DICT|INTERRES
   115   59   60 1    
   116   59  125 1    
   117   60   61 1    
   118   60   62 1    
   119   60  126 1    
   120   61  127 1    
   121   61  128 1    
   122   61  129 1    
   123   62   63 2    
   124   62   64 am   BACKBONE|DICT|INTERRES
   125   64   65 1    
   126   64  130 1    
   127   65   66 1    
   128   65   69 1    
   129   65  131 1    
   130   66   67 am   BACKBONE|DICT|INTERRES
   131   66   68 2    
   132   67  132 1    
   133   67  133 1    
   134   69   70 1    
   135   69  134 1    
   136   69  135 1    
   137   70   71 1    
   138   71  136 1    
   139   71  137 1    
@<TRIPOS>SUBSTRUCTURE
     1 UNK         1 GROUP             0       ****    0 ROOT    
