@<TRIPOS>MOLECULE
3R137
137   139    1
SMALL
USER_CHARGES


@<TRIPOS>ATOM
      1 CA         22.7823   -4.2907   -6.7366 C.3       0 UNK        -0.2020 
      2 C          23.4854   -3.8446   -5.4645 C.2       0 UNK         0.4855 
      3 O          23.5399   -2.6474   -5.1860 O.2       0 UNK        -0.5197 
      4 N          23.9948   -4.7996   -4.6718 N.am      1 UNK        -0.4892 
      5 CA         24.8183   -4.6132   -3.4581 C.3       1 UNK         0.0835 
      6 C6         26.1774   -3.9117   -3.7526 C.3       12 UNK        -0.0855 
      7 S7         27.1425   -4.8133   -5.0147 S.3       12 UNK        -0.2931 
      8 C8         28.5760   -5.4219   -4.0683 C.3       12 UNK         0.0378 
      9 C9         29.7518   -4.4551   -4.1250 C.ar      12 UNK        -0.0802 
     10 C10        30.3643   -4.1819   -5.3522 C.ar      12 UNK        -0.0944 
     11 C11        31.4681   -3.3290   -5.4373 C.ar      12 UNK        -0.0787 
     12 C12        31.9705   -2.7619   -4.2583 C.ar      12 UNK        -0.0862 
     13 C13        31.3605   -3.0109   -3.0238 C.ar      12 UNK        -0.0733 
     14 C14        30.2523   -3.8622   -2.9615 C.ar      12 UNK        -0.0832 
     15 C15        31.9088   -2.3565   -1.7601 C.3       12 UNK         0.0240 
     16 S16        30.8532   -0.9989   -1.1466 S.3       12 UNK        -0.2522 
     17 C17        30.6728    0.0543   -2.6267 C.3       12 UNK        -0.0967 
     18 CA         29.2667   -0.1323   -3.2544 C.3       5 UNK         0.0660 
     19 N          28.1832    0.4615   -2.4595 N.am      5 UNK        -0.4015 
     20 C          27.9758    1.7418   -2.1294 C.2       4 UNK         0.4946 
     21 O          28.6879    2.6714   -2.5139 O.2       4 UNK        -0.5353 
     22 CA         26.7263    2.0278   -1.2716 C.3       4 UNK         0.0277 
     23 CB         26.6732    3.4859   -0.7774 C.3       4 UNK        -0.1981 
     24 N          25.4823    1.7238   -1.9873 N.am      4 UNK        -0.4209 
     25 C          25.0294    0.4942   -2.2631 C.2       3 UNK         0.4942 
     26 O          25.6279   -0.5378   -1.9462 O.2       3 UNK        -0.5208 
     27 CA         23.7237    0.4105   -3.0706 C.3       3 UNK         0.0250 
     28 CB         24.0199    0.5855   -4.5702 C.3       3 UNK        -0.1990 
     29 N          23.0600   -0.8772   -2.8613 N.am      3 UNK        -0.4232 
     30 C          22.4535   -1.2454   -1.7208 C.2       2 UNK         0.4993 
     31 O          22.2391   -0.4749   -0.7835 O.2       2 UNK        -0.5286 
     32 CA         22.0189   -2.7186   -1.5888 C.3       2 UNK         0.0209 
     33 CB         20.5229   -2.8727   -1.9082 C.3       2 UNK        -0.1931 
     34 N          22.7899   -3.6068   -2.4602 N.am      2 UNK        -0.4546 
     35 C          24.0773   -3.9347   -2.2791 C.2       1 UNK         0.5154 
     36 O          24.6797   -3.7251   -1.2254 O.2       1 UNK        -0.5181 
     37 C          29.2440    0.2530   -4.7465 C.2       5 UNK         0.5014 
     38 O          29.5055   -0.6116   -5.5810 O.2       5 UNK        -0.5248 
     39 N          28.8885    1.4987   -5.0836 N.am      6 UNK        -0.4434 
     40 CA         28.7987    2.0505   -6.4414 C.3       6 UNK         0.0363 
     41 CB         28.7617    3.5864   -6.3472 C.3       6 UNK        -0.1936 
     42 C          27.6439    1.4795   -7.2989 C.2       6 UNK         0.5081 
     43 O          26.9860    2.2254   -8.0257 O.2       6 UNK        -0.5248 
     44 N          27.4294    0.1609   -7.2233 N.am      7 UNK        -0.4718 
     45 CA         26.5575   -0.6180   -8.1042 C.3       7 UNK         0.0273 
     46 CB         26.2547   -1.9680   -7.4364 C.3       7 UNK        -0.1935 
     47 C          27.1972   -0.8328   -9.4878 C.2       7 UNK         0.5018 
     48 O          26.4755   -0.9944  -10.4725 O.2       7 UNK        -0.5186 
     49 N          28.5345   -0.8046   -9.5320 N.am      8 UNK        -0.4240 
     50 CA         29.3567   -0.7412  -10.7331 C.3       8 UNK         0.0235 
     51 CB         30.2710   -1.9764  -10.7883 C.3       8 UNK        -0.2000 
     52 C          30.1938    0.5369  -10.6297 C.2       8 UNK         0.4941 
     53 O          30.6294    0.8819   -9.5277 O.2       8 UNK        -0.5273 
     54 N          30.4327    1.1984  -11.7705 N.am      9 UNK        -0.4262 
     55 CA         31.1454    2.4803  -11.8664 C.3       9 UNK         0.0264 
     56 CB         31.1402    2.9627  -13.3259 C.3       9 UNK        -0.1955 
     57 C          32.5816    2.4522  -11.3140 C.2       9 UNK         0.5031 
     58 O          33.0320    3.4514  -10.7522 O.2       9 UNK        -0.5390 
     59 N          33.2527    1.2979  -11.4350 N.am      10 UNK        -0.4204 
     60 CA         34.5819    1.0312  -10.8766 C.3       10 UNK         0.0237 
     61 CB         35.0753   -0.3329  -11.3865 C.3       10 UNK        -0.1985 
     62 C          34.6367    1.0779   -9.3366 C.2       10 UNK         0.4970 
     63 O          35.7127    1.3207   -8.7884 O.2       10 UNK        -0.4914 
     64 N          33.4936    0.8547   -8.6769 N.am      11 UNK        -0.4285 
     65 CA         33.3223    0.9375   -7.2208 C.3       11 UNK         0.1007 
     66 C          32.7016    2.2883   -6.7578 C.2       11 UNK         0.5703 
     67 N          32.4674    3.2592   -7.6350 N.am      11 UNK        -0.7361 
     68 O          32.4505    2.4731   -5.5697 O.2       11 UNK        -0.4986 
     69 C69        32.5262   -0.2805   -6.6866 C.3       12 UNK        -0.0947 
     70 S70        33.4255   -1.8506   -6.9162 S.3       12 UNK        -0.2240 
     71 C71        32.0660   -3.0683   -6.8243 C.3       12 UNK         0.0194 
     72 H72        21.7422   -3.9663   -6.7241 H         1 UNK         0.0906 
     73 H73        23.2670   -3.8459   -7.6051 H         1 UNK         0.0906 
     74 H74        22.8005   -5.3738   -6.8559 H         1 UNK         0.0906 
     75 H75        23.8839   -5.7647   -4.9525 H         1 UNK         0.3140 
     76 H76        25.0449   -5.6187   -3.0997 H         1 UNK         0.1085 
     77 H77        26.7757   -3.8175   -2.8445 H         1 UNK         0.0836 
     78 H78        26.0163   -2.8911   -4.1046 H         1 UNK         0.0836 
     79 H79        28.2842   -5.6377   -3.0394 H         1 UNK         0.0731 
     80 H80        28.8920   -6.3740   -4.4969 H         1 UNK         0.0731 
     81 H81        29.9716   -4.6367   -6.2516 H         1 UNK         0.1312 
     82 H82        32.8310   -2.1106   -4.2898 H         1 UNK         0.1406 
     83 H83        29.7847   -4.0614   -2.0066 H         1 UNK         0.1631 
     84 H84        32.9141   -1.9691   -1.9329 H         1 UNK         0.0717 
     85 H85        32.0059   -3.1089   -0.9762 H         1 UNK         0.0717 
     86 H86        30.8460    1.0948   -2.3488 H         1 UNK         0.0934 
     87 H87        31.4652   -0.1890   -3.3352 H         1 UNK         0.0934 
     88 H88        29.0451   -1.2010   -3.2541 H         1 UNK         0.0739 
     89 H89        27.4569   -0.1900   -2.1685 H         1 UNK         0.3093 
     90 H90        26.7854    1.3828   -0.3919 H         1 UNK         0.0818 
     91 H91        25.8265    3.6489   -0.1103 H         1 UNK         0.0819 
     92 H92        27.5755    3.7417   -0.2201 H         1 UNK         0.0819 
     93 H93        26.5907    4.1920   -1.6047 H         1 UNK         0.0819 
     94 H94        24.9520    2.5184   -2.3156 H         1 UNK         0.3041 
     95 H95        23.0505    1.2056   -2.7432 H         1 UNK         0.0784 
     96 H96        23.1123    0.4979   -5.1679 H         1 UNK         0.0793 
     97 H97        24.4512    1.5657   -4.7773 H         1 UNK         0.0793 
     98 H98        24.7280   -0.1623   -4.9301 H         1 UNK         0.0793 
     99 H99        23.2136   -1.5770   -3.5827 H         1 UNK         0.3024 
    100 H100       22.1868   -3.0181   -0.5517 H         1 UNK         0.1171 
    101 H101       20.2980   -2.5896   -2.9374 H         1 UNK         0.0786 
    102 H102       19.9184   -2.2401   -1.2565 H         1 UNK         0.0786 
    103 H103       20.1892   -3.9000   -1.7607 H         1 UNK         0.0786 
    104 H104       22.3852   -3.8255   -3.3594 H         1 UNK         0.2977 
    105 H105       28.7129    2.1420   -4.3154 H         1 UNK         0.3127 
    106 H106       29.7183    1.7789   -6.9634 H         1 UNK         0.0770 
    107 H107       27.8575    3.9363   -5.8480 H         1 UNK         0.0814 
    108 H108       28.7892    4.0420   -7.3380 H         1 UNK         0.0814 
    109 H109       29.6212    3.9689   -5.7961 H         1 UNK         0.0814 
    110 H110       28.0528   -0.3638   -6.6114 H         1 UNK         0.2983 
    111 H111       25.6198   -0.0753   -8.2428 H         1 UNK         0.0947 
    112 H112       25.5735   -2.5630   -8.0457 H         1 UNK         0.0806 
    113 H113       25.7837   -1.8314   -6.4636 H         1 UNK         0.0806 
    114 H114       27.1601   -2.5578   -7.2857 H         1 UNK         0.0806 
    115 H115       29.0285   -0.5907   -8.6755 H         1 UNK         0.3000 
    116 H116       28.7346   -0.7013  -11.6299 H         1 UNK         0.0850 
    117 H117       30.9436   -2.0218   -9.9304 H         1 UNK         0.0810 
    118 H118       29.6885   -2.8977  -10.8043 H         1 UNK         0.0810 
    119 H119       30.8880   -1.9671  -11.6875 H         1 UNK         0.0810 
    120 H120       30.0496    0.8334  -12.6314 H         1 UNK         0.3040 
    121 H121       30.5877    3.2035  -11.2674 H         1 UNK         0.0766 
    122 H122       30.1239    3.0969  -13.6971 H         1 UNK         0.0812 
    123 H123       31.6506    2.2608  -13.9867 H         1 UNK         0.0812 
    124 H124       31.6456    3.9251  -13.4205 H         1 UNK         0.0812 
    125 H125       32.7967    0.5334  -11.9110 H         1 UNK         0.3205 
    126 H126       35.2586    1.8033  -11.2488 H         1 UNK         0.0754 
    127 H127       36.0782   -0.5490  -11.0151 H         1 UNK         0.0769 
    128 H128       35.1238   -0.3574  -12.4754 H         1 UNK         0.0769 
    129 H129       34.4252   -1.1454  -11.0587 H         1 UNK         0.0769 
    130 H130       32.6332    0.7201   -9.1964 H         1 UNK         0.2981 
    131 H131       34.3033    0.9092   -6.7437 H         1 UNK         0.0541 
    132 H132       32.0799    4.1291   -7.3085 H         1 UNK         0.3459 
    133 H133       32.6881    3.1432   -8.6151 H         1 UNK         0.3459 
    134 H134       31.5600   -0.3437   -7.1889 H         1 UNK         0.0612 
    135 H135       32.3166   -0.1729   -5.6223 H         1 UNK         0.0612 
    136 H136       31.2708   -2.7509   -7.5005 H         1 UNK         0.0624 
    137 H137       32.4423   -4.0144   -7.2154 H         1 UNK         0.0624 
@<TRIPOS>BOND
     1    1    2 1    
     2    1   72 1    
     3    1   73 1    
     4    1   74 1    
     5    2    3 2    
     6    2    4 am   BACKBONE|DICT|INTERRES
     7    4    5 1    
     8    4   75 1    
     9    5    6 1    
    10    5   35 1    
    11    5   76 1    
    12    6    7 1    
    13    6   77 1    
    14    6   78 1    
    15    7    8 1    
    16    8    9 1    
    17    8   79 1    
    18    8   80 1    
    19    9   10 ar   
    20    9   14 ar   
    21   10   11 ar   
    22   10   81 1    
    23   11   12 ar   
    24   11   71 1    
    25   12   13 ar   
    26   12   82 1    
    27   13   14 ar   
    28   13   15 1    
    29   14   83 1    
    30   15   16 1    
    31   15   84 1    
    32   15   85 1    
    33   16   17 1    
    34   17   18 1    
    35   17   86 1    
    36   17   87 1    
    37   18   19 1    
    38   18   37 1    
    39   18   88 1    
    40   19   20 am   BACKBONE|DICT|INTERRES
    41   19   89 1    
    42   20   21 2    
    43   20   22 1    
    44   22   23 1    
    45   22   24 1    
    46   22   90 1    
    47   23   91 1    
    48   23   92 1    
    49   23   93 1    
    50   24   25 am   BACKBONE|DICT|INTERRES
    51   24   94 1    
    52   25   26 2    
    53   25   27 1    
    54   27   28 1    
    55   27   29 1    
    56   27   95 1    
    57   28   96 1    
    58   28   97 1    
    59   28   98 1    
    60   29   30 am   BACKBONE|DICT|INTERRES
    61   29   99 1    
    62   30   31 2    
    63   30   32 1    
    64   32   33 1    
    65   32   34 1    
    66   32  100 1    
    67   33  101 1    
    68   33  102 1    
    69   33  103 1    
    70   34   35 am   BACKBONE|DICT|INTERRES
    71   34  104 1    
    72   35   36 2    
    73   37   38 2    
    74   37   39 am   BACKBONE|DICT|INTERRES
    75   39   40 1    
    76   39  105 1    
    77   40   41 1    
    78   40   42 1    
    79   40  106 1    
    80   41  107 1    
    81   41  108 1    
    82   41  109 1    
    83   42   43 2    
    84   42   44 am   BACKBONE|DICT|INTERRES
    85   44   45 1    
    86   44  110 1    
    87   45   46 1    
    88   45   47 1    
    89   45  111 1    
    90   46  112 1    
    91   46  113 1    
    92   46  114 1    
    93   47   48 2    
    94   47   49 am   BACKBONE|DICT|INTERRES
    95   49   50 1    
    96   49  115 1    
    97   50   51 1    
    98   50   52 1    
    99   50  116 1    
   100   51  117 1    
   101   51  118 1    
   102   51  119 1    
   103   52   53 2    
   104   52   54 am   BACKBONE|DICT|INTERRES
   105   54   55 1    
   106   54  120 1    
   107   55   56 1    
   108   55   57 1    
   109   55  121 1    
   110   56  122 1    
   111   56  123 1    
   112   56  124 1    
   113   57   58 2    
   114   57   59 am   BACKBONE|DICT|INTERRES
   115   59   60 1    
   116   59  125 1    
   117   60   61 1    
   118   60   62 1    
   119   60  126 1    
   120   61  127 1    
   121   61  128 1    
   122   61  129 1    
   123   62   63 2    
   124   62   64 am   BACKBONE|DICT|INTERRES
   125   64   65 1    
   126   64  130 1    
   127   65   66 1    
   128   65   69 1    
   129   65  131 1    
   130   66   67 am   BACKBONE|DICT|INTERRES
   131   66   68 2    
   132   67  132 1    
   133   67  133 1    
   134   69   70 1    
   135   69  134 1    
   136   69  135 1    
   137   70   71 1    
   138   71  136 1    
   139   71  137 1    
@<TRIPOS>SUBSTRUCTURE
     1 UNK         1 GROUP             0       ****    0 ROOT    
