@<TRIPOS>MOLECULE
3R137
137   139    1
SMALL
USER_CHARGES


@<TRIPOS>ATOM
      1 CA         26.5985   -1.8609    3.1200 C.3       0 UNK        -0.2020 
      2 C          26.9353   -2.0015    1.6430 C.2       0 UNK         0.4855 
      3 O          26.6026   -1.1180    0.8528 O.2       0 UNK        -0.5197 
      4 N          27.6001   -3.1007    1.2669 N.am      1 UNK        -0.4892 
      5 CA         27.9773   -3.4303   -0.1118 C.3       1 UNK         0.0835 
      6 C6         29.0069   -4.5914   -0.1658 C.3       12 UNK        -0.0855 
      7 S7         30.5014   -4.2652    0.8378 S.3       12 UNK        -0.2931 
      8 C8         31.8553   -4.7359   -0.2996 C.3       12 UNK         0.0378 
      9 C9         32.0715   -3.8242   -1.5107 C.ar      12 UNK        -0.0802 
     10 C10        32.9437   -4.2542   -2.5188 C.ar      12 UNK        -0.0944 
     11 C11        33.1732   -3.4658   -3.6509 C.ar      12 UNK        -0.0787 
     12 C12        32.5169   -2.2405   -3.7792 C.ar      12 UNK        -0.0862 
     13 C13        31.6360   -1.8027   -2.7911 C.ar      12 UNK        -0.0733 
     14 C14        31.4363   -2.5821   -1.6499 C.ar      12 UNK        -0.0832 
     15 C15        30.8644   -0.5109   -2.9822 C.3       12 UNK         0.0240 
     16 S16        29.1876   -0.8797   -3.5759 S.3       12 UNK        -0.2522 
     17 C17        28.5988    0.7839   -4.0259 C.3       12 UNK        -0.0967 
     18 CA         28.3666    0.9287   -5.5501 C.3       5 UNK         0.0660 
     19 N          27.3484   -0.0044   -6.0490 N.am      5 UNK        -0.4015 
     20 C          27.0497   -0.1887   -7.3447 C.2       4 UNK         0.4946 
     21 O          27.6690    0.3457   -8.2653 O.2       4 UNK        -0.5353 
     22 CA         25.8290   -1.0604   -7.6964 C.3       4 UNK         0.0277 
     23 CB         26.2766   -2.4657   -8.1233 C.3       4 UNK        -0.1981 
     24 N          24.8365   -1.1791   -6.6265 N.am      4 UNK        -0.4209 
     25 C          24.1937   -0.1672   -6.0247 C.2       3 UNK         0.4942 
     26 O          24.3271    1.0149   -6.3444 O.2       3 UNK        -0.5208 
     27 CA         23.3173   -0.5322   -4.8119 C.3       3 UNK         0.0250 
     28 CB         21.8556   -0.7193   -5.2469 C.3       3 UNK        -0.1990 
     29 N          23.7746   -1.7281   -4.0861 N.am      3 UNK        -0.4232 
     30 C          24.9900   -1.8662   -3.5353 C.2       2 UNK         0.4993 
     31 O          25.8594   -0.9933   -3.5801 O.2       2 UNK        -0.5286 
     32 CA         25.3122   -3.2206   -2.8960 C.3       2 UNK         0.0209 
     33 CB         25.5993   -4.2816   -3.9751 C.3       2 UNK        -0.1931 
     34 N          26.4857   -3.0715   -2.0377 N.am      2 UNK        -0.4546 
     35 C          26.7159   -3.7803   -0.9280 C.2       1 UNK         0.5154 
     36 O          25.9765   -4.6861   -0.5327 O.2       1 UNK        -0.5181 
     37 C          28.0334    2.3983   -5.8853 C.2       5 UNK         0.5014 
     38 O          28.9580    3.1959   -6.0428 O.2       5 UNK        -0.5248 
     39 N          26.7386    2.7304   -5.9879 N.am      6 UNK        -0.4434 
     40 CA         26.2490    4.0570   -6.3577 C.3       6 UNK         0.0363 
     41 CB         25.1228    4.4685   -5.3947 C.3       6 UNK        -0.1936 
     42 C          25.7466    4.0752   -7.8074 C.2       6 UNK         0.5081 
     43 O          26.0437    5.0222   -8.5352 O.2       6 UNK        -0.5248 
     44 N          24.9822    3.0454   -8.1988 N.am      7 UNK        -0.4718 
     45 CA         24.2978    2.9728   -9.4915 C.3       7 UNK         0.0273 
     46 CB         23.2068    1.8912   -9.4308 C.3       7 UNK        -0.1935 
     47 C          25.2340    2.7302  -10.6857 C.2       7 UNK         0.5018 
     48 O          24.9811    3.2812  -11.7581 O.2       7 UNK        -0.5186 
     49 N          26.2746    1.9089  -10.4920 N.am      8 UNK        -0.4240 
     50 CA         27.2224    1.5171  -11.5412 C.3       8 UNK         0.0235 
     51 CB         27.1453   -0.0091  -11.7273 C.3       8 UNK        -0.2000 
     52 C          28.6678    1.9389  -11.2331 C.2       8 UNK         0.4941 
     53 O          29.4936    1.9164  -12.1464 O.2       8 UNK        -0.5273 
     54 N          28.9577    2.2743   -9.9656 N.am      9 UNK        -0.4262 
     55 CA         30.2924    2.4548   -9.3792 C.3       9 UNK         0.0264 
     56 CB         31.0122    3.6823   -9.9775 C.3       9 UNK        -0.1955 
     57 C          31.1248    1.1578   -9.4507 C.2       9 UNK         0.5031 
     58 O          32.3198    1.2037   -9.7536 O.2       9 UNK        -0.5390 
     59 N          30.4596    0.0187   -9.2029 N.am      10 UNK        -0.4204 
     60 CA         31.0199   -1.3294   -9.3129 C.3       10 UNK         0.0237 
     61 CB         29.9082   -2.3618   -9.0742 C.3       10 UNK        -0.1985 
     62 C          32.1924   -1.5660   -8.3484 C.2       10 UNK         0.4970 
     63 O          32.0888   -1.2004   -7.1764 O.2       10 UNK        -0.4914 
     64 N          33.2635   -2.1743   -8.8794 N.am      11 UNK        -0.4285 
     65 CA         34.5368   -2.5312   -8.2217 C.3       11 UNK         0.1007 
     66 C          35.2663   -1.4103   -7.4148 C.2       11 UNK         0.5703 
     67 N          34.9431   -0.1370   -7.6071 N.am      11 UNK        -0.7361 
     68 O          36.1847   -1.6879   -6.6474 O.2       11 UNK        -0.4986 
     69 C69        34.5249   -3.9391   -7.5444 C.3       12 UNK        -0.0947 
     70 S70        33.2243   -4.2271   -6.2989 S.3       12 UNK        -0.2240 
     71 C71        34.1231   -3.9205   -4.7471 C.3       12 UNK         0.0194 
     72 H72        25.5191   -1.7931    3.2537 H         1 UNK         0.0906 
     73 H73        26.9600   -2.7075    3.7037 H         1 UNK         0.0906 
     74 H74        27.0496   -0.9545    3.5230 H         1 UNK         0.0906 
     75 H75        27.8462   -3.7961    1.9570 H         1 UNK         0.3140 
     76 H76        28.4366   -2.5429   -0.5524 H         1 UNK         0.1085 
     77 H77        28.5606   -5.5206    0.1946 H         1 UNK         0.0836 
     78 H78        29.3011   -4.7803   -1.2003 H         1 UNK         0.0836 
     79 H79        32.7824   -4.7629    0.2746 H         1 UNK         0.0731 
     80 H80        31.6771   -5.7566   -0.6420 H         1 UNK         0.0731 
     81 H81        33.4451   -5.2077   -2.4217 H         1 UNK         0.1312 
     82 H82        32.6738   -1.6412   -4.6662 H         1 UNK         0.1406 
     83 H83        30.7629   -2.2173   -0.8890 H         1 UNK         0.1631 
     84 H84        31.3741    0.1334   -3.7008 H         1 UNK         0.0717 
     85 H85        30.8105    0.0419   -2.0431 H         1 UNK         0.0717 
     86 H86        27.6771    0.9808   -3.4747 H         1 UNK         0.0934 
     87 H87        29.3197    1.5248   -3.6736 H         1 UNK         0.0934 
     88 H88        29.3022    0.6904   -6.0619 H         1 UNK         0.0739 
     89 H89        26.8035   -0.4776   -5.3347 H         1 UNK         0.3093 
     90 H90        25.3337   -0.5903   -8.5471 H         1 UNK         0.0818 
     91 H91        25.4262   -3.0877   -8.4034 H         1 UNK         0.0819 
     92 H92        26.9308   -2.4160   -8.9932 H         1 UNK         0.0819 
     93 H93        26.8220   -2.9773   -7.3290 H         1 UNK         0.0819 
     94 H94        24.6572   -2.1115   -6.2848 H         1 UNK         0.3041 
     95 H95        23.3642    0.3100   -4.1183 H         1 UNK         0.0784 
     96 H96        21.4888    0.1646   -5.7712 H         1 UNK         0.0793 
     97 H97        21.7387   -1.5693   -5.9204 H         1 UNK         0.0793 
     98 H98        21.2026   -0.8773   -4.3884 H         1 UNK         0.0793 
     99 H99        23.1164   -2.4915   -4.0157 H         1 UNK         0.3024 
    100 H100       24.4519   -3.5245   -2.2947 H         1 UNK         0.1171 
    101 H101       24.7385   -4.4274   -4.6287 H         1 UNK         0.0786 
    102 H102       25.8283   -5.2490   -3.5275 H         1 UNK         0.0786 
    103 H103       26.4449   -3.9971   -4.6030 H         1 UNK         0.0786 
    104 H104       27.0808   -2.2877   -2.2834 H         1 UNK         0.2977 
    105 H105       26.0345    2.0082   -5.8774 H         1 UNK         0.3127 
    106 H106       27.0476    4.7973   -6.2733 H         1 UNK         0.0770 
    107 H107       24.2870    3.7680   -5.4217 H         1 UNK         0.0814 
    108 H108       24.7316    5.4542   -5.6504 H         1 UNK         0.0814 
    109 H109       25.4822    4.5196   -4.3669 H         1 UNK         0.0814 
    110 H110       24.7529    2.3177   -7.5240 H         1 UNK         0.2983 
    111 H111       23.8047    3.9332   -9.6596 H         1 UNK         0.0947 
    112 H112       22.6500    1.8452  -10.3678 H         1 UNK         0.0806 
    113 H113       22.4881    2.0976   -8.6374 H         1 UNK         0.0806 
    114 H114       23.6247    0.9009   -9.2515 H         1 UNK         0.0806 
    115 H115       26.4107    1.4925   -9.5795 H         1 UNK         0.3000 
    116 H116       26.9601    1.9852  -12.4923 H         1 UNK         0.0850 
    117 H117       27.8203   -0.3423  -12.5169 H         1 UNK         0.0810 
    118 H118       26.1400   -0.3232  -12.0081 H         1 UNK         0.0810 
    119 H119       27.4211   -0.5430  -10.8176 H         1 UNK         0.0810 
    120 H120       28.2095    2.1946   -9.2907 H         1 UNK         0.3040 
    121 H121       30.1384    2.6527   -8.3190 H         1 UNK         0.0766 
    122 H122       31.2701    3.5334  -11.0262 H         1 UNK         0.0812 
    123 H123       30.3943    4.5773   -9.9064 H         1 UNK         0.0812 
    124 H124       31.9406    3.8861   -9.4428 H         1 UNK         0.0812 
    125 H125       29.4840    0.0863   -8.9259 H         1 UNK         0.3205 
    126 H126       31.3786   -1.4448  -10.3379 H         1 UNK         0.0754 
    127 H127       30.2972   -3.3792   -9.1339 H         1 UNK         0.0769 
    128 H128       29.1235   -2.2718   -9.8248 H         1 UNK         0.0769 
    129 H129       29.4550   -2.2430   -8.0890 H         1 UNK         0.0769 
    130 H130       33.2266   -2.4053   -9.8614 H         1 UNK         0.2981 
    131 H131       35.2121   -2.6490   -9.0698 H         1 UNK         0.0541 
    132 H132       34.1877    0.1122   -8.2283 H         1 UNK         0.3459 
    133 H133       35.4360    0.5786   -7.0977 H         1 UNK         0.3459 
    134 H134       35.4987   -4.1778   -7.1136 H         1 UNK         0.0612 
    135 H135       34.3730   -4.6913   -8.3197 H         1 UNK         0.0612 
    136 H136       34.8751   -3.1462   -4.8945 H         1 UNK         0.0624 
    137 H137       34.6590   -4.8258   -4.4583 H         1 UNK         0.0624 
@<TRIPOS>BOND
     1    1    2 1    
     2    1   72 1    
     3    1   73 1    
     4    1   74 1    
     5    2    3 2    
     6    2    4 am   BACKBONE|DICT|INTERRES
     7    4    5 1    
     8    4   75 1    
     9    5    6 1    
    10    5   35 1    
    11    5   76 1    
    12    6    7 1    
    13    6   77 1    
    14    6   78 1    
    15    7    8 1    
    16    8    9 1    
    17    8   79 1    
    18    8   80 1    
    19    9   10 ar   
    20    9   14 ar   
    21   10   11 ar   
    22   10   81 1    
    23   11   12 ar   
    24   11   71 1    
    25   12   13 ar   
    26   12   82 1    
    27   13   14 ar   
    28   13   15 1    
    29   14   83 1    
    30   15   16 1    
    31   15   84 1    
    32   15   85 1    
    33   16   17 1    
    34   17   18 1    
    35   17   86 1    
    36   17   87 1    
    37   18   19 1    
    38   18   37 1    
    39   18   88 1    
    40   19   20 am   BACKBONE|DICT|INTERRES
    41   19   89 1    
    42   20   21 2    
    43   20   22 1    
    44   22   23 1    
    45   22   24 1    
    46   22   90 1    
    47   23   91 1    
    48   23   92 1    
    49   23   93 1    
    50   24   25 am   BACKBONE|DICT|INTERRES
    51   24   94 1    
    52   25   26 2    
    53   25   27 1    
    54   27   28 1    
    55   27   29 1    
    56   27   95 1    
    57   28   96 1    
    58   28   97 1    
    59   28   98 1    
    60   29   30 am   BACKBONE|DICT|INTERRES
    61   29   99 1    
    62   30   31 2    
    63   30   32 1    
    64   32   33 1    
    65   32   34 1    
    66   32  100 1    
    67   33  101 1    
    68   33  102 1    
    69   33  103 1    
    70   34   35 am   BACKBONE|DICT|INTERRES
    71   34  104 1    
    72   35   36 2    
    73   37   38 2    
    74   37   39 am   BACKBONE|DICT|INTERRES
    75   39   40 1    
    76   39  105 1    
    77   40   41 1    
    78   40   42 1    
    79   40  106 1    
    80   41  107 1    
    81   41  108 1    
    82   41  109 1    
    83   42   43 2    
    84   42   44 am   BACKBONE|DICT|INTERRES
    85   44   45 1    
    86   44  110 1    
    87   45   46 1    
    88   45   47 1    
    89   45  111 1    
    90   46  112 1    
    91   46  113 1    
    92   46  114 1    
    93   47   48 2    
    94   47   49 am   BACKBONE|DICT|INTERRES
    95   49   50 1    
    96   49  115 1    
    97   50   51 1    
    98   50   52 1    
    99   50  116 1    
   100   51  117 1    
   101   51  118 1    
   102   51  119 1    
   103   52   53 2    
   104   52   54 am   BACKBONE|DICT|INTERRES
   105   54   55 1    
   106   54  120 1    
   107   55   56 1    
   108   55   57 1    
   109   55  121 1    
   110   56  122 1    
   111   56  123 1    
   112   56  124 1    
   113   57   58 2    
   114   57   59 am   BACKBONE|DICT|INTERRES
   115   59   60 1    
   116   59  125 1    
   117   60   61 1    
   118   60   62 1    
   119   60  126 1    
   120   61  127 1    
   121   61  128 1    
   122   61  129 1    
   123   62   63 2    
   124   62   64 am   BACKBONE|DICT|INTERRES
   125   64   65 1    
   126   64  130 1    
   127   65   66 1    
   128   65   69 1    
   129   65  131 1    
   130   66   67 am   BACKBONE|DICT|INTERRES
   131   66   68 2    
   132   67  132 1    
   133   67  133 1    
   134   69   70 1    
   135   69  134 1    
   136   69  135 1    
   137   70   71 1    
   138   71  136 1    
   139   71  137 1    
@<TRIPOS>SUBSTRUCTURE
     1 UNK         1 GROUP             0       ****    0 ROOT    
