@<TRIPOS>MOLECULE
3R137
137   139    1
SMALL
USER_CHARGES


@<TRIPOS>ATOM
      1 CA         22.1122   -2.3424   -4.6050 C.3       0 UNK        -0.2020 
      2 C          23.3784   -3.1733   -4.4591 C.2       0 UNK         0.4855 
      3 O          23.3945   -4.1452   -3.7035 O.2       0 UNK        -0.5197 
      4 N          24.4372   -2.7987   -5.1830 N.am      1 UNK        -0.4892 
      5 CA         25.7652   -3.4113   -5.1185 C.3       1 UNK         0.0835 
      6 C6         26.5405   -3.1040   -6.4205 C.3       12 UNK        -0.0855 
      7 S7         28.0544   -4.0975   -6.6226 S.3       12 UNK        -0.2931 
      8 C8         29.2157   -2.8508   -7.2684 C.3       12 UNK         0.0378 
      9 C9         29.6556   -1.8378   -6.2170 C.ar      12 UNK        -0.0802 
     10 C10        30.3996   -2.2540   -5.1085 C.ar      12 UNK        -0.0944 
     11 C11        30.8606   -1.3259   -4.1700 C.ar      12 UNK        -0.0787 
     12 C12        30.5685    0.0299   -4.3456 C.ar      12 UNK        -0.0862 
     13 C13        29.8273    0.4622   -5.4497 C.ar      12 UNK        -0.0733 
     14 C14        29.3679   -0.4775   -6.3792 C.ar      12 UNK        -0.0832 
     15 C15        29.5851    1.9518   -5.6615 C.3       12 UNK         0.0240 
     16 S16        28.2492    2.5951   -4.6066 S.3       12 UNK        -0.2522 
     17 C17        26.7890    2.4329   -5.6906 C.3       12 UNK        -0.0967 
     18 CA         26.0498    1.0856   -5.4772 C.3       5 UNK         0.0660 
     19 N          25.6208    0.8337   -4.1069 N.am      5 UNK        -0.4015 
     20 C          24.7972    1.5634   -3.3434 C.2       4 UNK         0.4946 
     21 O          24.2337    2.5915   -3.7209 O.2       4 UNK        -0.5353 
     22 CA         24.5666    1.0621   -1.9035 C.3       4 UNK         0.0277 
     23 CB         23.2155    0.3370   -1.7993 C.3       4 UNK        -0.1981 
     24 N          25.6292    0.1510   -1.4697 N.am      4 UNK        -0.4209 
     25 C          26.8184    0.5264   -0.9812 C.2       3 UNK         0.4942 
     26 O          27.0839    1.6741   -0.6217 O.2       3 UNK        -0.5208 
     27 CA         27.8835   -0.5820   -0.9117 C.3       3 UNK         0.0250 
     28 CB         29.1163   -0.2017   -0.0717 C.3       3 UNK        -0.1990 
     29 N          27.2865   -1.8158   -0.3849 N.am      3 UNK        -0.4232 
     30 C          27.3306   -3.0667   -0.8701 C.2       2 UNK         0.4993 
     31 O          26.6795   -3.9687   -0.3432 O.2       2 UNK        -0.5286 
     32 CA         28.1889   -3.4220   -2.1066 C.3       2 UNK         0.0209 
     33 CB         29.1132   -4.6157   -1.8082 C.3       2 UNK        -0.1931 
     34 N          27.3650   -3.7447   -3.2748 N.am      2 UNK        -0.4546 
     35 C          26.5111   -2.9019   -3.8695 C.2       1 UNK         0.5154 
     36 O          26.3202   -1.7471   -3.4853 O.2       1 UNK        -0.5181 
     37 C          24.8989    0.8042   -6.4565 C.2       5 UNK         0.5014 
     38 O          24.5318   -0.3639   -6.6035 O.2       5 UNK        -0.5248 
     39 N          24.3975    1.8329   -7.1565 N.am      6 UNK        -0.4434 
     40 CA         23.4741    1.7911   -8.3040 C.3       6 UNK         0.0363 
     41 CB         22.1543    1.0628   -7.9774 C.3       6 UNK        -0.1936 
     42 C          24.1394    1.2326   -9.5771 C.2       6 UNK         0.5081 
     43 O          24.0517    1.8608  -10.6328 O.2       6 UNK        -0.5248 
     44 N          24.8383    0.0998   -9.4433 N.am      7 UNK        -0.4718 
     45 CA         25.8253   -0.4039  -10.3982 C.3       7 UNK         0.0273 
     46 CB         26.0678   -1.8945  -10.1089 C.3       7 UNK        -0.1935 
     47 C          27.1441    0.3888  -10.2962 C.2       7 UNK         0.5018 
     48 O          27.3345    1.1578   -9.3481 O.2       7 UNK        -0.5186 
     49 N          28.0370    0.1680  -11.2717 N.am      8 UNK        -0.4240 
     50 CA         29.3667    0.7816  -11.3640 C.3       8 UNK         0.0235 
     51 CB         30.0614    0.2859  -12.6427 C.3       8 UNK        -0.2000 
     52 C          30.2480    0.4937  -10.1356 C.2       8 UNK         0.4941 
     53 O          30.1727   -0.5991   -9.5688 O.2       8 UNK        -0.5273 
     54 N          31.0729    1.4783   -9.7576 N.am      9 UNK        -0.4262 
     55 CA         31.9155    1.4748   -8.5603 C.3       9 UNK         0.0264 
     56 CB         32.3510    2.9183   -8.2471 C.3       9 UNK        -0.1955 
     57 C          33.1066    0.5047   -8.6460 C.2       9 UNK         0.5031 
     58 O          34.2570    0.9426   -8.7108 O.2       9 UNK        -0.5390 
     59 N          32.8109   -0.8005   -8.6050 N.am      10 UNK        -0.4204 
     60 CA         33.7818   -1.9009   -8.5698 C.3       10 UNK         0.0237 
     61 CB         33.0296   -3.2408   -8.5705 C.3       10 UNK        -0.1985 
     62 C          34.7513   -1.8358   -7.3741 C.2       10 UNK         0.4970 
     63 O          35.8974   -2.2675   -7.5043 O.2       10 UNK        -0.4914 
     64 N          34.2829   -1.2778   -6.2504 N.am      11 UNK        -0.4285 
     65 CA         35.0899   -0.9727   -5.0603 C.3       11 UNK         0.1007 
     66 C          36.0275    0.2629   -5.2148 C.2       11 UNK         0.5703 
     67 N          35.9703    1.0314   -6.2973 N.am      11 UNK        -0.7361 
     68 O          36.8395    0.5255   -4.3307 O.2       11 UNK        -0.4986 
     69 C69        34.2074   -0.8514   -3.7902 C.3       12 UNK        -0.0947 
     70 S70        33.3181   -2.3993   -3.4172 S.3       12 UNK        -0.2240 
     71 C71        31.6651   -1.7905   -2.9628 C.3       12 UNK         0.0194 
     72 H72        21.3686   -2.8918   -5.1816 H         1 UNK         0.0906 
     73 H73        21.6880   -2.1223   -3.6259 H         1 UNK         0.0906 
     74 H74        22.3055   -1.3959   -5.1107 H         1 UNK         0.0906 
     75 H75        24.3828   -1.9484   -5.7437 H         1 UNK         0.3140 
     76 H76        25.6381   -4.4929   -5.0323 H         1 UNK         0.1085 
     77 H77        25.9037   -3.3239   -7.2785 H         1 UNK         0.0836 
     78 H78        26.7747   -2.0403   -6.4872 H         1 UNK         0.0836 
     79 H79        28.7618   -2.3529   -8.1261 H         1 UNK         0.0731 
     80 H80        30.0959   -3.3653   -7.6526 H         1 UNK         0.0731 
     81 H81        30.6290   -3.3033   -4.9814 H         1 UNK         0.1312 
     82 H82        30.9261    0.7553   -3.6275 H         1 UNK         0.1406 
     83 H83        28.8124   -0.1456   -7.2470 H         1 UNK         0.1631 
     84 H84        29.3741    2.1677   -6.7099 H         1 UNK         0.0717 
     85 H85        30.5006    2.4965   -5.4258 H         1 UNK         0.0717 
     86 H86        26.1307    3.2776   -5.4826 H         1 UNK         0.0934 
     87 H87        27.1028    2.5400   -6.7310 H         1 UNK         0.0934 
     88 H88        26.7774    0.3004   -5.6806 H         1 UNK         0.0739 
     89 H89        25.9576   -0.0522   -3.7322 H         1 UNK         0.3093 
     90 H90        24.5461    1.9335   -1.2455 H         1 UNK         0.0818 
     91 H91        22.3977    0.9848   -2.1181 H         1 UNK         0.0819 
     92 H92        23.1901   -0.5552   -2.4251 H         1 UNK         0.0819 
     93 H93        23.0071    0.0333   -0.7733 H         1 UNK         0.0819 
     94 H94        25.5528   -0.8086   -1.7885 H         1 UNK         0.3041 
     95 H95        28.2052   -0.6894   -1.9458 H         1 UNK         0.0784 
     96 H96        29.5932    0.6990   -0.4609 H         1 UNK         0.0793 
     97 H97        28.8501   -0.0096    0.9683 H         1 UNK         0.0793 
     98 H98        29.8648   -0.9940   -0.0861 H         1 UNK         0.0793 
     99 H99        26.6978   -1.6680    0.4234 H         1 UNK         0.3024 
    100 H100       28.8365   -2.5964   -2.3838 H         1 UNK         0.1171 
    101 H101       29.7525   -4.4072   -0.9492 H         1 UNK         0.0786 
    102 H102       28.5488   -5.5214   -1.5824 H         1 UNK         0.0786 
    103 H103       29.7681   -4.8315   -2.6529 H         1 UNK         0.0786 
    104 H104       27.4700   -4.6740   -3.6552 H         1 UNK         0.2977 
    105 H105       24.7703    2.7501   -6.9555 H         1 UNK         0.3127 
    106 H106       23.2234    2.8325   -8.5129 H         1 UNK         0.0770 
    107 H107       22.2953   -0.0088   -7.8352 H         1 UNK         0.0814 
    108 H108       21.4376    1.1845   -8.7903 H         1 UNK         0.0814 
    109 H109       21.6933    1.4634   -7.0747 H         1 UNK         0.0814 
    110 H110       24.8486   -0.3150   -8.5168 H         1 UNK         0.2983 
    111 H111       25.4275   -0.2932  -11.4094 H         1 UNK         0.0947 
    112 H112       26.7168   -2.3442  -10.8611 H         1 UNK         0.0806 
    113 H113       25.1352   -2.4591  -10.1093 H         1 UNK         0.0806 
    114 H114       26.5479   -2.0375   -9.1418 H         1 UNK         0.0806 
    115 H115       27.8079   -0.5041  -11.9889 H         1 UNK         0.3000 
    116 H116       29.2194    1.8610  -11.4400 H         1 UNK         0.0850 
    117 H117       31.0436    0.7462  -12.7598 H         1 UNK         0.0810 
    118 H118       29.4826    0.5334  -13.5328 H         1 UNK         0.0810 
    119 H119       30.2094   -0.7950  -12.6264 H         1 UNK         0.0810 
    120 H120       31.1018    2.3204  -10.3143 H         1 UNK         0.3040 
    121 H121       31.3066    1.1327   -7.7255 H         1 UNK         0.0766 
    122 H122       32.9462    3.3456   -9.0551 H         1 UNK         0.0812 
    123 H123       31.4902    3.5669   -8.0833 H         1 UNK         0.0812 
    124 H124       32.9577    2.9553   -7.3410 H         1 UNK         0.0812 
    125 H125       31.8252   -1.0468   -8.6612 H         1 UNK         0.3205 
    126 H126       34.3778   -1.8371   -9.4823 H         1 UNK         0.0754 
    127 H127       33.7261   -4.0772   -8.6436 H         1 UNK         0.0769 
    128 H128       32.3438   -3.3151   -9.4149 H         1 UNK         0.0769 
    129 H129       32.4552   -3.3773   -7.6536 H         1 UNK         0.0769 
    130 H130       33.3218   -0.9734   -6.2239 H         1 UNK         0.2981 
    131 H131       35.7615   -1.8189   -4.9023 H         1 UNK         0.0541 
    132 H132       36.5954    1.8183   -6.3661 H         1 UNK         0.3459 
    133 H133       35.3310    0.8359   -7.0604 H         1 UNK         0.3459 
    134 H134       33.4982   -0.0298   -3.9005 H         1 UNK         0.0612 
    135 H135       34.8159   -0.6139   -2.9157 H         1 UNK         0.0612 
    136 H136       31.7627   -0.9936   -2.2238 H         1 UNK         0.0624 
    137 H137       31.1358   -2.6020   -2.4660 H         1 UNK         0.0624 
@<TRIPOS>BOND
     1    1    2 1    
     2    1   72 1    
     3    1   73 1    
     4    1   74 1    
     5    2    3 2    
     6    2    4 am   BACKBONE|DICT|INTERRES
     7    4    5 1    
     8    4   75 1    
     9    5    6 1    
    10    5   35 1    
    11    5   76 1    
    12    6    7 1    
    13    6   77 1    
    14    6   78 1    
    15    7    8 1    
    16    8    9 1    
    17    8   79 1    
    18    8   80 1    
    19    9   10 ar   
    20    9   14 ar   
    21   10   11 ar   
    22   10   81 1    
    23   11   12 ar   
    24   11   71 1    
    25   12   13 ar   
    26   12   82 1    
    27   13   14 ar   
    28   13   15 1    
    29   14   83 1    
    30   15   16 1    
    31   15   84 1    
    32   15   85 1    
    33   16   17 1    
    34   17   18 1    
    35   17   86 1    
    36   17   87 1    
    37   18   19 1    
    38   18   37 1    
    39   18   88 1    
    40   19   20 am   BACKBONE|DICT|INTERRES
    41   19   89 1    
    42   20   21 2    
    43   20   22 1    
    44   22   23 1    
    45   22   24 1    
    46   22   90 1    
    47   23   91 1    
    48   23   92 1    
    49   23   93 1    
    50   24   25 am   BACKBONE|DICT|INTERRES
    51   24   94 1    
    52   25   26 2    
    53   25   27 1    
    54   27   28 1    
    55   27   29 1    
    56   27   95 1    
    57   28   96 1    
    58   28   97 1    
    59   28   98 1    
    60   29   30 am   BACKBONE|DICT|INTERRES
    61   29   99 1    
    62   30   31 2    
    63   30   32 1    
    64   32   33 1    
    65   32   34 1    
    66   32  100 1    
    67   33  101 1    
    68   33  102 1    
    69   33  103 1    
    70   34   35 am   BACKBONE|DICT|INTERRES
    71   34  104 1    
    72   35   36 2    
    73   37   38 2    
    74   37   39 am   BACKBONE|DICT|INTERRES
    75   39   40 1    
    76   39  105 1    
    77   40   41 1    
    78   40   42 1    
    79   40  106 1    
    80   41  107 1    
    81   41  108 1    
    82   41  109 1    
    83   42   43 2    
    84   42   44 am   BACKBONE|DICT|INTERRES
    85   44   45 1    
    86   44  110 1    
    87   45   46 1    
    88   45   47 1    
    89   45  111 1    
    90   46  112 1    
    91   46  113 1    
    92   46  114 1    
    93   47   48 2    
    94   47   49 am   BACKBONE|DICT|INTERRES
    95   49   50 1    
    96   49  115 1    
    97   50   51 1    
    98   50   52 1    
    99   50  116 1    
   100   51  117 1    
   101   51  118 1    
   102   51  119 1    
   103   52   53 2    
   104   52   54 am   BACKBONE|DICT|INTERRES
   105   54   55 1    
   106   54  120 1    
   107   55   56 1    
   108   55   57 1    
   109   55  121 1    
   110   56  122 1    
   111   56  123 1    
   112   56  124 1    
   113   57   58 2    
   114   57   59 am   BACKBONE|DICT|INTERRES
   115   59   60 1    
   116   59  125 1    
   117   60   61 1    
   118   60   62 1    
   119   60  126 1    
   120   61  127 1    
   121   61  128 1    
   122   61  129 1    
   123   62   63 2    
   124   62   64 am   BACKBONE|DICT|INTERRES
   125   64   65 1    
   126   64  130 1    
   127   65   66 1    
   128   65   69 1    
   129   65  131 1    
   130   66   67 am   BACKBONE|DICT|INTERRES
   131   66   68 2    
   132   67  132 1    
   133   67  133 1    
   134   69   70 1    
   135   69  134 1    
   136   69  135 1    
   137   70   71 1    
   138   71  136 1    
   139   71  137 1    
@<TRIPOS>SUBSTRUCTURE
     1 UNK         1 GROUP             0       ****    0 ROOT    
