@<TRIPOS>MOLECULE
3R137
137   139    1
SMALL
USER_CHARGES


@<TRIPOS>ATOM
      1 CA         25.5936   -4.5384   -1.4883 C.3       0 UNK        -0.2020 
      2 C          26.1420   -3.2988   -0.7985 C.2       0 UNK         0.4855 
      3 O          25.4945   -2.7644    0.1021 O.2       0 UNK        -0.5197 
      4 N          27.3326   -2.8400   -1.2083 N.am      1 UNK        -0.4892 
      5 CA         28.0056   -1.6605   -0.6426 C.3       1 UNK         0.0835 
      6 C6         29.5321   -1.6569   -0.9054 C.3       12 UNK        -0.0855 
      7 S7         30.3513   -3.1504   -0.2448 S.3       12 UNK        -0.2931 
      8 C8         31.7794   -3.3396   -1.3713 C.3       12 UNK         0.0378 
      9 C9         31.4126   -3.4829   -2.8480 C.ar      12 UNK        -0.0802 
     10 C10        32.2555   -2.9318   -3.8198 C.ar      12 UNK        -0.0944 
     11 C11        31.9444   -3.0312   -5.1834 C.ar      12 UNK        -0.0787 
     12 C12        30.7573   -3.6680   -5.5592 C.ar      12 UNK        -0.0862 
     13 C13        29.9085   -4.2287   -4.6015 C.ar      12 UNK        -0.0733 
     14 C14        30.2555   -4.1584   -3.2516 C.ar      12 UNK        -0.0832 
     15 C15        28.6150   -4.9046   -5.0249 C.3       12 UNK         0.0240 
     16 S16        27.1631   -3.8895   -4.5985 S.3       12 UNK        -0.2522 
     17 C17        25.8825   -4.6958   -5.6227 C.3       12 UNK        -0.0967 
     18 CA         25.2191   -3.7746   -6.6817 C.3       5 UNK         0.0660 
     19 N          24.3112   -2.7965   -6.0689 N.am      5 UNK        -0.4015 
     20 C          22.9787   -2.7904   -6.2303 C.2       4 UNK         0.4946 
     21 O          22.3559   -3.6771   -6.8163 O.2       4 UNK        -0.5353 
     22 CA         22.1906   -1.5839   -5.6790 C.3       4 UNK         0.0277 
     23 CB         21.6446   -1.9028   -4.2774 C.3       4 UNK        -0.1981 
     24 N          22.9514   -0.3324   -5.6208 N.am      4 UNK        -0.4209 
     25 C          23.5788    0.2646   -6.6454 C.2       3 UNK         0.4942 
     26 O          23.5159   -0.1319   -7.8083 O.2       3 UNK        -0.5208 
     27 CA         24.5043    1.4529   -6.3140 C.3       3 UNK         0.0250 
     28 CB         23.8129    2.7808   -6.6603 C.3       3 UNK        -0.1990 
     29 N          24.9679    1.4973   -4.9206 N.am      3 UNK        -0.4232 
     30 C          25.6131    0.5148   -4.2751 C.2       2 UNK         0.4993 
     31 O          25.9325   -0.5565   -4.8032 O.2       2 UNK        -0.5286 
     32 CA         25.8823    0.7568   -2.7852 C.3       2 UNK         0.0209 
     33 CB         24.5636    0.9273   -2.0011 C.3       2 UNK        -0.1931 
     34 N          26.6299   -0.3685   -2.2335 N.am      2 UNK        -0.4546 
     35 C          27.3665   -0.3372   -1.1152 C.2       1 UNK         0.5154 
     36 O          27.5428    0.6846   -0.4493 O.2       1 UNK        -0.5181 
     37 C          26.2175   -3.0856   -7.6425 C.2       5 UNK         0.5014 
     38 O          27.2293   -3.6899   -8.0006 O.2       5 UNK        -0.5248 
     39 N          25.9160   -1.8396   -8.0455 N.am      6 UNK        -0.4434 
     40 CA         26.7194   -0.9397   -8.8804 C.3       6 UNK         0.0363 
     41 CB         26.9353   -1.5237  -10.2927 C.3       6 UNK        -0.1936 
     42 C          28.0391   -0.4783   -8.2321 C.2       6 UNK         0.5081 
     43 O          28.9147    0.0084   -8.9511 O.2       6 UNK        -0.5248 
     44 N          28.1662   -0.5743   -6.8970 N.am      7 UNK        -0.4718 
     45 CA         29.3844   -0.2091   -6.1589 C.3       7 UNK         0.0273 
     46 CB         29.2449   -0.5605   -4.6725 C.3       7 UNK        -0.1935 
     47 C          29.7686    1.2689   -6.3018 C.2       7 UNK         0.5018 
     48 O          30.9563    1.5802   -6.3299 O.2       7 UNK        -0.5186 
     49 N          28.7602    2.1390   -6.4479 N.am      8 UNK        -0.4240 
     50 CA         28.9157    3.5711   -6.7120 C.3       8 UNK         0.0235 
     51 CB         27.5314    4.2385   -6.6664 C.3       8 UNK        -0.2000 
     52 C          29.6237    3.8875   -8.0446 C.2       8 UNK         0.4941 
     53 O          30.2205    4.9584   -8.1607 O.2       8 UNK        -0.5273 
     54 N          29.5494    2.9639   -9.0135 N.am      9 UNK        -0.4262 
     55 CA         30.2396    3.0487  -10.2982 C.3       9 UNK         0.0264 
     56 CB         29.2904    2.5959  -11.4214 C.3       9 UNK        -0.1955 
     57 C          31.5166    2.1970  -10.2868 C.2       9 UNK         0.5031 
     58 O          32.5796    2.6993  -10.6527 O.2       9 UNK        -0.5390 
     59 N          31.3932    0.9255   -9.8804 N.am      10 UNK        -0.4204 
     60 CA         32.4613   -0.0746   -9.9462 C.3       10 UNK         0.0237 
     61 CB         31.8439   -1.4775   -9.8167 C.3       10 UNK        -0.1985 
     62 C          33.5951    0.1279   -8.9252 C.2       10 UNK         0.4970 
     63 O          34.7323   -0.2362   -9.2272 O.2       10 UNK        -0.4914 
     64 N          33.2763    0.6874   -7.7528 N.am      11 UNK        -0.4285 
     65 CA         34.2049    0.9418   -6.6392 C.3       11 UNK         0.1007 
     66 C          34.2369    2.4440   -6.2292 C.2       11 UNK         0.5703 
     67 N          33.7070    3.3635   -7.0286 N.am      11 UNK        -0.7361 
     68 O          34.7832    2.7937   -5.1852 O.2       11 UNK        -0.4986 
     69 C69        33.9223   -0.0096   -5.4386 C.3       12 UNK        -0.0947 
     70 S70        34.4229   -1.7294   -5.7861 S.3       12 UNK        -0.2240 
     71 C71        32.8433   -2.4881   -6.2966 C.3       12 UNK         0.0194 
     72 H72        25.0787   -5.1758   -0.7700 H         1 UNK         0.0906 
     73 H73        24.8828   -4.2535   -2.2637 H         1 UNK         0.0906 
     74 H74        26.3872   -5.1277   -1.9469 H         1 UNK         0.0906 
     75 H75        27.8164   -3.3061   -1.9624 H         1 UNK         0.3140 
     76 H76        27.8656   -1.6908    0.4406 H         1 UNK         0.1085 
     77 H77        30.0002   -0.7883   -0.4377 H         1 UNK         0.0836 
     78 H78        29.7283   -1.5667   -1.9739 H         1 UNK         0.0836 
     79 H79        32.4376   -2.4810   -1.2287 H         1 UNK         0.0731 
     80 H80        32.3488   -4.2191   -1.0686 H         1 UNK         0.0731 
     81 H81        33.1572   -2.4296   -3.5010 H         1 UNK         0.1312 
     82 H82        30.4926   -3.7306   -6.6065 H         1 UNK         0.1406 
     83 H83        29.6066   -4.6100   -2.5147 H         1 UNK         0.1631 
     84 H84        28.5300   -5.8791   -4.5420 H         1 UNK         0.0717 
     85 H85        28.6272   -5.0909   -6.0998 H         1 UNK         0.0717 
     86 H86        26.3096   -5.5683   -6.1199 H         1 UNK         0.0934 
     87 H87        25.1188   -5.0972   -4.9549 H         1 UNK         0.0934 
     88 H88        24.6432   -4.4321   -7.3359 H         1 UNK         0.0739 
     89 H89        24.7603   -2.0456   -5.5516 H         1 UNK         0.3093 
     90 H90        21.3449   -1.4170   -6.3493 H         1 UNK         0.0818 
     91 H91        21.0001   -1.1042   -3.9095 H         1 UNK         0.0819 
     92 H92        21.0482   -2.8164   -4.2894 H         1 UNK         0.0819 
     93 H93        22.4482   -2.0484   -3.5540 H         1 UNK         0.0819 
     94 H94        23.0657    0.0763   -4.7056 H         1 UNK         0.3041 
     95 H95        25.3891    1.3543   -6.9454 H         1 UNK         0.0784 
     96 H96        22.9240    2.9442   -6.0495 H         1 UNK         0.0793 
     97 H97        24.4800    3.6303   -6.5148 H         1 UNK         0.0793 
     98 H98        23.4972    2.7962   -7.7047 H         1 UNK         0.0793 
     99 H99        24.7378    2.3367   -4.4073 H         1 UNK         0.3024 
    100 H100       26.4855    1.6635   -2.6986 H         1 UNK         0.1171 
    101 H101       23.9838    1.7779   -2.3606 H         1 UNK         0.0786 
    102 H102       24.7516    1.1031   -0.9417 H         1 UNK         0.0786 
    103 H103       23.9328    0.0407   -2.0798 H         1 UNK         0.0786 
    104 H104       26.5720   -1.2234   -2.7734 H         1 UNK         0.2977 
    105 H105       25.0225   -1.4526   -7.7586 H         1 UNK         0.3127 
    106 H106       26.1211   -0.0354   -8.9972 H         1 UNK         0.0770 
    107 H107       27.6071   -2.3823  -10.2785 H         1 UNK         0.0814 
    108 H108       27.3762   -0.7821  -10.9599 H         1 UNK         0.0814 
    109 H109       25.9933   -1.8396  -10.7406 H         1 UNK         0.0814 
    110 H110       27.3965   -0.9433   -6.3497 H         1 UNK         0.2983 
    111 H111       30.1977   -0.8040   -6.5752 H         1 UNK         0.0947 
    112 H112       30.2107   -0.4879   -4.1708 H         1 UNK         0.0806 
    113 H113       28.8830   -1.5758   -4.5292 H         1 UNK         0.0806 
    114 H114       28.5638    0.1161   -4.1596 H         1 UNK         0.0806 
    115 H115       27.8196    1.7767   -6.4157 H         1 UNK         0.3000 
    116 H116       29.5295    3.9896   -5.9114 H         1 UNK         0.0850 
    117 H117       27.6132    5.3156   -6.8190 H         1 UNK         0.0810 
    118 H118       27.0467    4.0862   -5.7019 H         1 UNK         0.0810 
    119 H119       26.8707    3.8498   -7.4423 H         1 UNK         0.0810 
    120 H120       29.0741    2.0911   -8.8168 H         1 UNK         0.3040 
    121 H121       30.5285    4.0817  -10.5045 H         1 UNK         0.0766 
    122 H122       29.7864    2.6400  -12.3920 H         1 UNK         0.0812 
    123 H123       28.4126    3.2397  -11.4777 H         1 UNK         0.0812 
    124 H124       28.9430    1.5718  -11.2787 H         1 UNK         0.0812 
    125 H125       30.4766    0.5884   -9.5850 H         1 UNK         0.3205 
    126 H126       32.9170   -0.0061  -10.9366 H         1 UNK         0.0754 
    127 H127       31.2421   -1.5753   -8.9136 H         1 UNK         0.0769 
    128 H128       31.1963   -1.6995  -10.6652 H         1 UNK         0.0769 
    129 H129       32.6144   -2.2494   -9.7873 H         1 UNK         0.0769 
    130 H130       32.3224    0.9834   -7.5689 H         1 UNK         0.2981 
    131 H131       35.2261    0.7502   -6.9723 H         1 UNK         0.0541 
    132 H132       33.7399    4.3323   -6.7550 H         1 UNK         0.3459 
    133 H133       33.2818    3.0986   -7.9024 H         1 UNK         0.3459 
    134 H134       32.8705    0.0229   -5.1496 H         1 UNK         0.0612 
    135 H135       34.4856    0.2975   -4.5562 H         1 UNK         0.0612 
    136 H136       32.2818   -1.7615   -6.8788 H         1 UNK         0.0624 
    137 H137       33.0796   -3.3080   -6.9761 H         1 UNK         0.0624 
@<TRIPOS>BOND
     1    1    2 1    
     2    1   72 1    
     3    1   73 1    
     4    1   74 1    
     5    2    3 2    
     6    2    4 am   BACKBONE|DICT|INTERRES
     7    4    5 1    
     8    4   75 1    
     9    5    6 1    
    10    5   35 1    
    11    5   76 1    
    12    6    7 1    
    13    6   77 1    
    14    6   78 1    
    15    7    8 1    
    16    8    9 1    
    17    8   79 1    
    18    8   80 1    
    19    9   10 ar   
    20    9   14 ar   
    21   10   11 ar   
    22   10   81 1    
    23   11   12 ar   
    24   11   71 1    
    25   12   13 ar   
    26   12   82 1    
    27   13   14 ar   
    28   13   15 1    
    29   14   83 1    
    30   15   16 1    
    31   15   84 1    
    32   15   85 1    
    33   16   17 1    
    34   17   18 1    
    35   17   86 1    
    36   17   87 1    
    37   18   19 1    
    38   18   37 1    
    39   18   88 1    
    40   19   20 am   BACKBONE|DICT|INTERRES
    41   19   89 1    
    42   20   21 2    
    43   20   22 1    
    44   22   23 1    
    45   22   24 1    
    46   22   90 1    
    47   23   91 1    
    48   23   92 1    
    49   23   93 1    
    50   24   25 am   BACKBONE|DICT|INTERRES
    51   24   94 1    
    52   25   26 2    
    53   25   27 1    
    54   27   28 1    
    55   27   29 1    
    56   27   95 1    
    57   28   96 1    
    58   28   97 1    
    59   28   98 1    
    60   29   30 am   BACKBONE|DICT|INTERRES
    61   29   99 1    
    62   30   31 2    
    63   30   32 1    
    64   32   33 1    
    65   32   34 1    
    66   32  100 1    
    67   33  101 1    
    68   33  102 1    
    69   33  103 1    
    70   34   35 am   BACKBONE|DICT|INTERRES
    71   34  104 1    
    72   35   36 2    
    73   37   38 2    
    74   37   39 am   BACKBONE|DICT|INTERRES
    75   39   40 1    
    76   39  105 1    
    77   40   41 1    
    78   40   42 1    
    79   40  106 1    
    80   41  107 1    
    81   41  108 1    
    82   41  109 1    
    83   42   43 2    
    84   42   44 am   BACKBONE|DICT|INTERRES
    85   44   45 1    
    86   44  110 1    
    87   45   46 1    
    88   45   47 1    
    89   45  111 1    
    90   46  112 1    
    91   46  113 1    
    92   46  114 1    
    93   47   48 2    
    94   47   49 am   BACKBONE|DICT|INTERRES
    95   49   50 1    
    96   49  115 1    
    97   50   51 1    
    98   50   52 1    
    99   50  116 1    
   100   51  117 1    
   101   51  118 1    
   102   51  119 1    
   103   52   53 2    
   104   52   54 am   BACKBONE|DICT|INTERRES
   105   54   55 1    
   106   54  120 1    
   107   55   56 1    
   108   55   57 1    
   109   55  121 1    
   110   56  122 1    
   111   56  123 1    
   112   56  124 1    
   113   57   58 2    
   114   57   59 am   BACKBONE|DICT|INTERRES
   115   59   60 1    
   116   59  125 1    
   117   60   61 1    
   118   60   62 1    
   119   60  126 1    
   120   61  127 1    
   121   61  128 1    
   122   61  129 1    
   123   62   63 2    
   124   62   64 am   BACKBONE|DICT|INTERRES
   125   64   65 1    
   126   64  130 1    
   127   65   66 1    
   128   65   69 1    
   129   65  131 1    
   130   66   67 am   BACKBONE|DICT|INTERRES
   131   66   68 2    
   132   67  132 1    
   133   67  133 1    
   134   69   70 1    
   135   69  134 1    
   136   69  135 1    
   137   70   71 1    
   138   71  136 1    
   139   71  137 1    
@<TRIPOS>SUBSTRUCTURE
     1 UNK         1 GROUP             0       ****    0 ROOT    
