@<TRIPOS>MOLECULE
3R137
137   139    1
SMALL
USER_CHARGES


@<TRIPOS>ATOM
      1 CA         23.4581   -4.2283   -0.6123 C.3       0 UNK        -0.2020 
      2 C          24.6646   -3.3182   -0.4366 C.2       0 UNK         0.4855 
      3 O          24.6518   -2.4464    0.4327 O.2       0 UNK        -0.5197 
      4 N          25.7117   -3.5195   -1.2473 N.am      1 UNK        -0.4892 
      5 CA         26.9205   -2.6949   -1.2564 C.3       1 UNK         0.0835 
      6 C6         28.1335   -3.4767   -1.8127 C.3       12 UNK        -0.0855 
      7 S7         29.7144   -2.7849   -1.2268 S.3       12 UNK        -0.2931 
      8 C8         30.8798   -4.0679   -1.7795 C.3       12 UNK         0.0378 
      9 C9         31.0603   -4.0500   -3.2901 C.ar      12 UNK        -0.0802 
     10 C10        32.0330   -3.2317   -3.8693 C.ar      12 UNK        -0.0944 
     11 C11        32.2196   -3.2179   -5.2548 C.ar      12 UNK        -0.0787 
     12 C12        31.4159   -4.0293   -6.0644 C.ar      12 UNK        -0.0862 
     13 C13        30.4443   -4.8605   -5.4951 C.ar      12 UNK        -0.0733 
     14 C14        30.2748   -4.8677   -4.1073 C.ar      12 UNK        -0.0832 
     15 C15        29.6147   -5.7961   -6.3668 C.3       12 UNK         0.0240 
     16 S16        28.4166   -4.9239   -7.4251 S.3       12 UNK        -0.2522 
     17 C17        27.2697   -4.1830   -6.2098 C.3       12 UNK        -0.0967 
     18 CA         26.7268   -2.8074   -6.6753 C.3       5 UNK         0.0660 
     19 N          25.5814   -2.3552   -5.8813 N.am      5 UNK        -0.4015 
     20 C          24.3109   -2.6598   -6.1816 C.2       4 UNK         0.4946 
     21 O          23.9796   -3.3426   -7.1522 O.2       4 UNK        -0.5353 
     22 CA         23.2113   -2.1363   -5.2443 C.3       4 UNK         0.0277 
     23 CB         23.0408   -3.0783   -4.0433 C.3       4 UNK        -0.1981 
     24 N          23.4365   -0.7754   -4.7594 N.am      4 UNK        -0.4209 
     25 C          23.4151    0.3398   -5.4995 C.2       3 UNK         0.4942 
     26 O          23.2475    0.3481   -6.7187 O.2       3 UNK        -0.5208 
     27 CA         23.6151    1.6799   -4.7618 C.3       3 UNK         0.0250 
     28 CB         22.2862    2.1921   -4.1713 C.3       3 UNK        -0.1990 
     29 N          24.6917    1.6660   -3.7569 N.am      3 UNK        -0.4232 
     30 C          24.7500    0.9693   -2.6133 C.2       2 UNK         0.4993 
     31 O          23.8295    0.2723   -2.1794 O.2       2 UNK        -0.5286 
     32 CA         26.0815    1.0230   -1.8485 C.3       2 UNK         0.0209 
     33 CB         25.9999    2.0338   -0.6937 C.3       2 UNK        -0.1931 
     34 N          26.4512   -0.2912   -1.3158 N.am      2 UNK        -0.4546 
     35 C          26.6465   -1.3995   -2.0448 C.2       1 UNK         0.5154 
     36 O          26.5930   -1.4360   -3.2809 O.2       1 UNK        -0.5181 
     37 C          27.8239   -1.7362   -6.7443 C.2       5 UNK         0.5014 
     38 O          28.2975   -1.4440   -7.8431 O.2       5 UNK        -0.5248 
     39 N          28.2126   -1.1538   -5.6002 N.am      6 UNK        -0.4434 
     40 CA         29.3765   -0.2645   -5.5070 C.3       6 UNK         0.0363 
     41 CB         29.6607    0.0769   -4.0383 C.3       6 UNK        -0.1936 
     42 C          29.2685    1.0114   -6.3586 C.2       6 UNK         0.5081 
     43 O          30.2720    1.4539   -6.9166 O.2       6 UNK        -0.5248 
     44 N          28.0474    1.5482   -6.4878 N.am      7 UNK        -0.4718 
     45 CA         27.7417    2.7026   -7.3377 C.3       7 UNK         0.0273 
     46 CB         26.3681    3.2713   -6.9529 C.3       7 UNK        -0.1935 
     47 C          27.7743    2.3724   -8.8402 C.2       7 UNK         0.5018 
     48 O          28.1230    3.2436   -9.6365 O.2       7 UNK        -0.5186 
     49 N          27.4169    1.1311   -9.2001 N.am      8 UNK        -0.4240 
     50 CA         27.4528    0.6257  -10.5743 C.3       8 UNK         0.0235 
     51 CB         26.5159   -0.5864  -10.7099 C.3       8 UNK        -0.2000 
     52 C          28.8845    0.2680  -10.9990 C.2       8 UNK         0.4941 
     53 O          29.2794    0.5790  -12.1231 O.2       8 UNK        -0.5273 
     54 N          29.6422   -0.3484  -10.0806 N.am      9 UNK        -0.4262 
     55 CA         31.0692   -0.6397  -10.2292 C.3       9 UNK         0.0264 
     56 CB         31.5009   -1.6025   -9.1117 C.3       9 UNK        -0.1955 
     57 C          31.9474    0.6255  -10.2174 C.2       9 UNK         0.5031 
     58 O          33.0186    0.6151  -10.8250 O.2       9 UNK        -0.5390 
     59 N          31.4809    1.6747   -9.5220 N.am      10 UNK        -0.4204 
     60 CA         32.1341    2.9677   -9.2864 C.3       10 UNK         0.0237 
     61 CB         32.3217    3.7479  -10.6051 C.3       10 UNK        -0.1985 
     62 C          33.4309    2.8349   -8.4640 C.2       10 UNK         0.4970 
     63 O          34.3767    3.5968   -8.6754 O.2       10 UNK        -0.4914 
     64 N          33.4503    1.8610   -7.5472 N.am      11 UNK        -0.4285 
     65 CA         34.5635    1.5795   -6.6351 C.3       11 UNK         0.1007 
     66 C          34.5745    2.5092   -5.3889 C.2       11 UNK         0.5703 
     67 N          35.6793    2.5434   -4.6552 N.am      11 UNK        -0.7361 
     68 O          33.6018    3.1929   -5.0727 O.2       11 UNK        -0.4986 
     69 C69        34.6258    0.0712   -6.2730 C.3       12 UNK        -0.0947 
     70 S70        33.0891   -0.5935   -5.5500 S.3       12 UNK        -0.2240 
     71 C71        33.3285   -2.3694   -5.8620 C.3       12 UNK         0.0194 
     72 H72        22.5756   -3.6367   -0.8542 H         1 UNK         0.0906 
     73 H73        23.6069   -4.9571   -1.4089 H         1 UNK         0.0906 
     74 H74        23.2607   -4.7718    0.3113 H         1 UNK         0.0906 
     75 H75        25.6658   -4.2408   -1.9528 H         1 UNK         0.3140 
     76 H76        27.1475   -2.4308   -0.2204 H         1 UNK         0.1085 
     77 H77        28.0909   -4.5135   -1.4747 H         1 UNK         0.0836 
     78 H78        28.1256   -3.5130   -2.9026 H         1 UNK         0.0836 
     79 H79        30.5381   -5.0483   -1.4439 H         1 UNK         0.0731 
     80 H80        31.8416   -3.9010   -1.2921 H         1 UNK         0.0731 
     81 H81        32.6528   -2.6071   -3.2403 H         1 UNK         0.1312 
     82 H82        31.5582   -4.0346   -7.1362 H         1 UNK         0.1406 
     83 H83        29.5354   -5.5174   -3.6593 H         1 UNK         0.1631 
     84 H84        29.0801   -6.5262   -5.7572 H         1 UNK         0.0717 
     85 H85        30.2869   -6.3711   -7.0052 H         1 UNK         0.0717 
     86 H86        26.4438   -4.8833   -6.0761 H         1 UNK         0.0934 
     87 H87        27.7489   -4.0957   -5.2347 H         1 UNK         0.0934 
     88 H88        26.3870   -2.9261   -7.7072 H         1 UNK         0.0739 
     89 H89        25.7796   -1.8238   -5.0389 H         1 UNK         0.3093 
     90 H90        22.2757   -2.1318   -5.8077 H         1 UNK         0.0818 
     91 H91        22.2068   -2.7712   -3.4120 H         1 UNK         0.0819 
     92 H92        22.8419   -4.0999   -4.3700 H         1 UNK         0.0819 
     93 H93        23.9391   -3.0993   -3.4275 H         1 UNK         0.0819 
     94 H94        23.5640   -0.6531   -3.7565 H         1 UNK         0.3041 
     95 H95        23.9222    2.4063   -5.5139 H         1 UNK         0.0784 
     96 H96        21.5346    2.3079   -4.9534 H         1 UNK         0.0793 
     97 H97        21.8735    1.5086   -3.4288 H         1 UNK         0.0793 
     98 H98        22.4124    3.1654   -3.6971 H         1 UNK         0.0793 
     99 H99        25.5014    2.2161   -4.0054 H         1 UNK         0.3024 
    100 H100       26.8705    1.3381   -2.5327 H         1 UNK         0.1171 
    101 H101       26.9515    2.1151   -0.1680 H         1 UNK         0.0786 
    102 H102       25.7484    3.0296   -1.0615 H         1 UNK         0.0786 
    103 H103       25.2366    1.7530    0.0336 H         1 UNK         0.0786 
    104 H104       26.4426   -0.3808   -0.3099 H         1 UNK         0.2977 
    105 H105       27.7539   -1.3960   -4.7253 H         1 UNK         0.3127 
    106 H106       30.2283   -0.8292   -5.8886 H         1 UNK         0.0770 
    107 H107       28.8254    0.5969   -3.5727 H         1 UNK         0.0814 
    108 H108       30.5383    0.7192   -3.9512 H         1 UNK         0.0814 
    109 H109       29.8651   -0.8237   -3.4604 H         1 UNK         0.0814 
    110 H110       27.2782    1.1025   -6.0116 H         1 UNK         0.2983 
    111 H111       28.4955    3.4717   -7.1527 H         1 UNK         0.0947 
    112 H112       26.1451    4.1695   -7.5307 H         1 UNK         0.0806 
    113 H113       26.3302    3.5498   -5.9001 H         1 UNK         0.0806 
    114 H114       25.5703    2.5548   -7.1506 H         1 UNK         0.0806 
    115 H115       27.2127    0.4571   -8.4753 H         1 UNK         0.3000 
    116 H116       27.0902    1.4093  -11.2435 H         1 UNK         0.0850 
    117 H117       26.4985   -0.9489  -11.7385 H         1 UNK         0.0810 
    118 H118       25.4917   -0.3277  -10.4406 H         1 UNK         0.0810 
    119 H119       26.8279   -1.4188  -10.0786 H         1 UNK         0.0810 
    120 H120       29.2027   -0.6427   -9.2090 H         1 UNK         0.3040 
    121 H121       31.2158   -1.1374  -11.1901 H         1 UNK         0.0766 
    122 H122       31.3581   -1.1623   -8.1241 H         1 UNK         0.0812 
    123 H123       32.5559   -1.8626   -9.2065 H         1 UNK         0.0812 
    124 H124       30.9307   -2.5310   -9.1466 H         1 UNK         0.0812 
    125 H125       30.6387    1.5275   -8.9770 H         1 UNK         0.3205 
    126 H126       31.4442    3.5393   -8.6637 H         1 UNK         0.0754 
    127 H127       32.6693    4.7635  -10.4125 H         1 UNK         0.0769 
    128 H128       31.3830    3.8260  -11.1540 H         1 UNK         0.0769 
    129 H129       33.0543    3.2723  -11.2578 H         1 UNK         0.0769 
    130 H130       32.5990    1.3429   -7.3736 H         1 UNK         0.2981 
    131 H131       35.4851    1.8043   -7.1756 H         1 UNK         0.0541 
    132 H132       35.7067    3.1369   -3.8409 H         1 UNK         0.3459 
    133 H133       36.4858    1.9899   -4.8985 H         1 UNK         0.3459 
    134 H134       35.4502   -0.1336   -5.5881 H         1 UNK         0.0612 
    135 H135       34.8476   -0.4964   -7.1781 H         1 UNK         0.0612 
    136 H136       33.3988   -2.5365   -6.9373 H         1 UNK         0.0624 
    137 H137       34.2835   -2.6804   -5.4363 H         1 UNK         0.0624 
@<TRIPOS>BOND
     1    1    2 1    
     2    1   72 1    
     3    1   73 1    
     4    1   74 1    
     5    2    3 2    
     6    2    4 am   BACKBONE|DICT|INTERRES
     7    4    5 1    
     8    4   75 1    
     9    5    6 1    
    10    5   35 1    
    11    5   76 1    
    12    6    7 1    
    13    6   77 1    
    14    6   78 1    
    15    7    8 1    
    16    8    9 1    
    17    8   79 1    
    18    8   80 1    
    19    9   10 ar   
    20    9   14 ar   
    21   10   11 ar   
    22   10   81 1    
    23   11   12 ar   
    24   11   71 1    
    25   12   13 ar   
    26   12   82 1    
    27   13   14 ar   
    28   13   15 1    
    29   14   83 1    
    30   15   16 1    
    31   15   84 1    
    32   15   85 1    
    33   16   17 1    
    34   17   18 1    
    35   17   86 1    
    36   17   87 1    
    37   18   19 1    
    38   18   37 1    
    39   18   88 1    
    40   19   20 am   BACKBONE|DICT|INTERRES
    41   19   89 1    
    42   20   21 2    
    43   20   22 1    
    44   22   23 1    
    45   22   24 1    
    46   22   90 1    
    47   23   91 1    
    48   23   92 1    
    49   23   93 1    
    50   24   25 am   BACKBONE|DICT|INTERRES
    51   24   94 1    
    52   25   26 2    
    53   25   27 1    
    54   27   28 1    
    55   27   29 1    
    56   27   95 1    
    57   28   96 1    
    58   28   97 1    
    59   28   98 1    
    60   29   30 am   BACKBONE|DICT|INTERRES
    61   29   99 1    
    62   30   31 2    
    63   30   32 1    
    64   32   33 1    
    65   32   34 1    
    66   32  100 1    
    67   33  101 1    
    68   33  102 1    
    69   33  103 1    
    70   34   35 am   BACKBONE|DICT|INTERRES
    71   34  104 1    
    72   35   36 2    
    73   37   38 2    
    74   37   39 am   BACKBONE|DICT|INTERRES
    75   39   40 1    
    76   39  105 1    
    77   40   41 1    
    78   40   42 1    
    79   40  106 1    
    80   41  107 1    
    81   41  108 1    
    82   41  109 1    
    83   42   43 2    
    84   42   44 am   BACKBONE|DICT|INTERRES
    85   44   45 1    
    86   44  110 1    
    87   45   46 1    
    88   45   47 1    
    89   45  111 1    
    90   46  112 1    
    91   46  113 1    
    92   46  114 1    
    93   47   48 2    
    94   47   49 am   BACKBONE|DICT|INTERRES
    95   49   50 1    
    96   49  115 1    
    97   50   51 1    
    98   50   52 1    
    99   50  116 1    
   100   51  117 1    
   101   51  118 1    
   102   51  119 1    
   103   52   53 2    
   104   52   54 am   BACKBONE|DICT|INTERRES
   105   54   55 1    
   106   54  120 1    
   107   55   56 1    
   108   55   57 1    
   109   55  121 1    
   110   56  122 1    
   111   56  123 1    
   112   56  124 1    
   113   57   58 2    
   114   57   59 am   BACKBONE|DICT|INTERRES
   115   59   60 1    
   116   59  125 1    
   117   60   61 1    
   118   60   62 1    
   119   60  126 1    
   120   61  127 1    
   121   61  128 1    
   122   61  129 1    
   123   62   63 2    
   124   62   64 am   BACKBONE|DICT|INTERRES
   125   64   65 1    
   126   64  130 1    
   127   65   66 1    
   128   65   69 1    
   129   65  131 1    
   130   66   67 am   BACKBONE|DICT|INTERRES
   131   66   68 2    
   132   67  132 1    
   133   67  133 1    
   134   69   70 1    
   135   69  134 1    
   136   69  135 1    
   137   70   71 1    
   138   71  136 1    
   139   71  137 1    
@<TRIPOS>SUBSTRUCTURE
     1 UNK         1 GROUP             0       ****    0 ROOT    
