@<TRIPOS>MOLECULE
3R137
137   139    1
SMALL
USER_CHARGES


@<TRIPOS>ATOM
      1 CA         23.8873   -6.0774   -3.7591 C.3       0 UNK        -0.2020 
      2 C          24.3722   -5.2829   -2.5561 C.2       0 UNK         0.4855 
      3 O          23.5990   -4.5237   -1.9709 O.2       0 UNK        -0.5197 
      4 N          25.6461   -5.4501   -2.1790 N.am      1 UNK        -0.4892 
      5 CA         26.3042   -4.6914   -1.1103 C.3       1 UNK         0.0835 
      6 C6         27.6122   -5.3826   -0.6400 C.3       12 UNK        -0.0855 
      7 S7         28.8877   -5.5719   -1.9399 S.3       12 UNK        -0.2931 
      8 C8         30.1279   -4.3467   -1.4094 C.3       12 UNK         0.0378 
      9 C9         30.7484   -3.6373   -2.6021 C.ar      12 UNK        -0.0802 
     10 C10        32.0145   -3.9946   -3.0760 C.ar      12 UNK        -0.0944 
     11 C11        32.5800   -3.3162   -4.1618 C.ar      12 UNK        -0.0787 
     12 C12        31.8691   -2.2763   -4.7728 C.ar      12 UNK        -0.0862 
     13 C13        30.6100   -1.9030   -4.2972 C.ar      12 UNK        -0.0733 
     14 C14        30.0528   -2.5967   -3.2207 C.ar      12 UNK        -0.0832 
     15 C15        29.8394   -0.7629   -4.9442 C.3       12 UNK         0.0240 
     16 S16        29.4546    0.5464   -3.7301 S.3       12 UNK        -0.2522 
     17 C17        28.4692    1.7935   -4.6378 C.3       12 UNK        -0.0967 
     18 CA         27.6451    1.2796   -5.8423 C.3       5 UNK         0.0660 
     19 N          26.7151    0.2030   -5.4805 N.am      5 UNK        -0.4015 
     20 C          26.0744   -0.5755   -6.3672 C.2       4 UNK         0.4946 
     21 O          26.1690   -0.4254   -7.5861 O.2       4 UNK        -0.5353 
     22 CA         25.1605   -1.6856   -5.8255 C.3       4 UNK         0.0277 
     23 CB         25.8776   -3.0427   -5.9020 C.3       4 UNK        -0.1981 
     24 N          24.7014   -1.4388   -4.4558 N.am      4 UNK        -0.4209 
     25 C          23.8210   -0.4802   -4.1225 C.2       3 UNK         0.4942 
     26 O          23.2939    0.2692   -4.9454 O.2       3 UNK        -0.5208 
     27 CA         23.4920   -0.2903   -2.6294 C.3       3 UNK         0.0250 
     28 CB         22.1933   -1.0281   -2.2679 C.3       3 UNK        -0.1990 
     29 N          24.5626   -0.7235   -1.7283 N.am      3 UNK        -0.4232 
     30 C          25.7877   -0.1802   -1.6774 C.2       2 UNK         0.4993 
     31 O          26.1257    0.7942   -2.3489 O.2       2 UNK        -0.5286 
     32 CA         26.8270   -0.8698   -0.7714 C.3       2 UNK         0.0209 
     33 CB         26.9109   -0.1582    0.5880 C.3       2 UNK        -0.1931 
     34 N          26.5963   -2.3072   -0.5559 N.am      2 UNK        -0.4546 
     35 C          26.5251   -3.2223   -1.5339 C.2       1 UNK         0.5154 
     36 O          26.6174   -2.9331   -2.7295 O.2       1 UNK        -0.5181 
     37 C          26.9553    2.4464   -6.5765 C.2       5 UNK         0.5014 
     38 O          27.6384    3.1785   -7.2901 O.2       5 UNK        -0.5248 
     39 N          25.6243    2.5679   -6.4570 N.am      6 UNK        -0.4434 
     40 CA         24.8014    3.4824   -7.2527 C.3       6 UNK         0.0363 
     41 CB         23.3589    3.4521   -6.7233 C.3       6 UNK        -0.1936 
     42 C          24.8276    3.1723   -8.7637 C.2       6 UNK         0.5081 
     43 O          24.6312    4.0880   -9.5631 O.2       6 UNK        -0.5248 
     44 N          25.0762    1.9054   -9.1260 N.am      7 UNK        -0.4718 
     45 CA         25.2421    1.4484  -10.5051 C.3       7 UNK         0.0273 
     46 CB         24.4045    0.1766  -10.7213 C.3       7 UNK        -0.1935 
     47 C          26.7198    1.1799  -10.8275 C.2       7 UNK         0.5018 
     48 O          27.1833    1.5802  -11.8957 O.2       7 UNK        -0.5186 
     49 N          27.4285    0.4954   -9.9171 N.am      8 UNK        -0.4240 
     50 CA         28.8069    0.0381  -10.1154 C.3       8 UNK         0.0235 
     51 CB         29.1222   -1.0817   -9.1089 C.3       8 UNK        -0.2000 
     52 C          29.8682    1.1475  -10.0287 C.2       8 UNK         0.4941 
     53 O          30.9389    0.9836  -10.6136 O.2       8 UNK        -0.5273 
     54 N          29.5862    2.2301   -9.2879 N.am      9 UNK        -0.4262 
     55 CA         30.4467    3.3868   -8.9900 C.3       9 UNK         0.0264 
     56 CB         30.8776    4.1284  -10.2709 C.3       9 UNK        -0.1955 
     57 C          31.6577    3.0791   -8.0877 C.2       9 UNK         0.5031 
     58 O          31.9178    3.8463   -7.1602 O.2       9 UNK        -0.5390 
     59 N          32.3726    1.9831   -8.3580 N.am      10 UNK        -0.4204 
     60 CA         33.5587    1.5230   -7.6387 C.3       10 UNK         0.0237 
     61 CB         34.7868    2.3460   -8.0808 C.3       10 UNK        -0.1985 
     62 C          33.7628    0.0238   -7.9006 C.2       10 UNK         0.4970 
     63 O          33.0256   -0.5680   -8.6924 O.2       10 UNK        -0.4914 
     64 N          34.7677   -0.5635   -7.2397 N.am      11 UNK        -0.4285 
     65 CA         35.1707   -1.9699   -7.4208 C.3       11 UNK         0.1007 
     66 C          35.9112   -2.2687   -8.7584 C.2       11 UNK         0.5703 
     67 N          36.3435   -1.2712   -9.5214 N.am      11 UNK        -0.7361 
     68 O          36.0906   -3.4316   -9.1127 O.2       11 UNK        -0.4986 
     69 C69        35.9837   -2.5087   -6.2113 C.3       12 UNK        -0.0947 
     70 S70        35.1193   -2.3142   -4.6186 S.3       12 UNK        -0.2240 
     71 C71        33.9515   -3.7111   -4.6889 C.3       12 UNK         0.0194 
     72 H72        24.6969   -6.6301   -4.2356 H         1 UNK         0.0906 
     73 H73        23.4529   -5.4072   -4.5005 H         1 UNK         0.0906 
     74 H74        23.1213   -6.7896   -3.4538 H         1 UNK         0.0906 
     75 H75        26.2576   -6.0481   -2.7172 H         1 UNK         0.3140 
     76 H76        25.6188   -4.6778   -0.2595 H         1 UNK         0.1085 
     77 H77        27.3726   -6.3820   -0.2730 H         1 UNK         0.0836 
     78 H78        28.0291   -4.8619    0.2238 H         1 UNK         0.0836 
     79 H79        29.6729   -3.5982   -0.7591 H         1 UNK         0.0731 
     80 H80        30.8931   -4.8455   -0.8125 H         1 UNK         0.0731 
     81 H81        32.5575   -4.7998   -2.5999 H         1 UNK         0.1312 
     82 H82        32.3056   -1.7530   -5.6128 H         1 UNK         0.1406 
     83 H83        29.0754   -2.3148   -2.8573 H         1 UNK         0.1631 
     84 H84        28.9277   -1.1840   -5.3643 H         1 UNK         0.0717 
     85 H85        30.4038   -0.3291   -5.7714 H         1 UNK         0.0717 
     86 H86        27.8128    2.2820   -3.9150 H         1 UNK         0.0934 
     87 H87        29.1680    2.5650   -4.9692 H         1 UNK         0.0934 
     88 H88        28.3474    0.8682   -6.5675 H         1 UNK         0.0739 
     89 H89        26.5701    0.0532   -4.4894 H         1 UNK         0.3093 
     90 H90        24.2819   -1.7295   -6.4727 H         1 UNK         0.0818 
     91 H91        26.1321   -3.2887   -6.9338 H         1 UNK         0.0819 
     92 H92        26.8077   -3.0436   -5.3324 H         1 UNK         0.0819 
     93 H93        25.2504   -3.8484   -5.5217 H         1 UNK         0.0819 
     94 H94        25.1400   -1.9928   -3.7255 H         1 UNK         0.3041 
     95 H95        23.3355    0.7781   -2.4660 H         1 UNK         0.0784 
     96 H96        21.3689   -0.7009   -2.9033 H         1 UNK         0.0793 
     97 H97        22.2934   -2.1069   -2.3944 H         1 UNK         0.0793 
     98 H98        21.9003   -0.8359   -1.2356 H         1 UNK         0.0793 
     99 H99        24.3747   -1.5336   -1.1553 H         1 UNK         0.3024 
    100 H100       27.7929   -0.7652   -1.2707 H         1 UNK         0.1171 
    101 H101       27.1060    0.9076    0.4586 H         1 UNK         0.0786 
    102 H102       25.9825   -0.2534    1.1523 H         1 UNK         0.0786 
    103 H103       27.7200   -0.5603    1.1981 H         1 UNK         0.0786 
    104 H104       26.5064   -2.6081    0.4045 H         1 UNK         0.2977 
    105 H105       25.1305    1.9228   -5.8549 H         1 UNK         0.3127 
    106 H106       25.1972    4.4913   -7.1181 H         1 UNK         0.0770 
    107 H107       22.9163    2.4592   -6.8154 H         1 UNK         0.0814 
    108 H108       22.7247    4.1449   -7.2783 H         1 UNK         0.0814 
    109 H109       23.3139    3.7430   -5.6736 H         1 UNK         0.0814 
    110 H110       25.2492    1.2161   -8.4028 H         1 UNK         0.2983 
    111 H111       24.8845    2.2079  -11.2041 H         1 UNK         0.0947 
    112 H112       24.7028   -0.6278  -10.0474 H         1 UNK         0.0806 
    113 H113       24.5135   -0.1939  -11.7416 H         1 UNK         0.0806 
    114 H114       23.3443    0.3710  -10.5593 H         1 UNK         0.0806 
    115 H115       26.9576    0.1678   -9.0745 H         1 UNK         0.3000 
    116 H116       28.8749   -0.3886  -11.1186 H         1 UNK         0.0850 
    117 H117       30.1303   -1.4711   -9.2610 H         1 UNK         0.0810 
    118 H118       28.4319   -1.9185   -9.2171 H         1 UNK         0.0810 
    119 H119       29.0631   -0.7328   -8.0791 H         1 UNK         0.0810 
    120 H120       28.6837    2.2690   -8.8267 H         1 UNK         0.3040 
    121 H121       29.8171    4.0762   -8.4263 H         1 UNK         0.0766 
    122 H122       31.5433    3.5281  -10.8909 H         1 UNK         0.0812 
    123 H123       31.4108    5.0475  -10.0244 H         1 UNK         0.0812 
    124 H124       30.0149    4.4063  -10.8759 H         1 UNK         0.0812 
    125 H125       32.0721    1.3842   -9.1274 H         1 UNK         0.3205 
    126 H126       33.3948    1.6538   -6.5668 H         1 UNK         0.0754 
    127 H127       35.6871    2.0457   -7.5439 H         1 UNK         0.0769 
    128 H128       34.6443    3.4091   -7.8857 H         1 UNK         0.0769 
    129 H129       34.9846    2.2288   -9.1472 H         1 UNK         0.0769 
    130 H130       35.3281   -0.0217   -6.5985 H         1 UNK         0.2981 
    131 H131       34.2507   -2.5547   -7.4739 H         1 UNK         0.0541 
    132 H132       36.8170   -1.4819  -10.3859 H         1 UNK         0.3459 
    133 H133       36.2029   -0.3142   -9.2428 H         1 UNK         0.3459 
    134 H134       36.9399   -1.9876   -6.1386 H         1 UNK         0.0612 
    135 H135       36.2241   -3.5657   -6.3419 H         1 UNK         0.0612 
    136 H136       34.3686   -4.5433   -4.1198 H         1 UNK         0.0624 
    137 H137       33.8375   -4.0666   -5.7133 H         1 UNK         0.0624 
@<TRIPOS>BOND
     1    1    2 1    
     2    1   72 1    
     3    1   73 1    
     4    1   74 1    
     5    2    3 2    
     6    2    4 am   BACKBONE|DICT|INTERRES
     7    4    5 1    
     8    4   75 1    
     9    5    6 1    
    10    5   35 1    
    11    5   76 1    
    12    6    7 1    
    13    6   77 1    
    14    6   78 1    
    15    7    8 1    
    16    8    9 1    
    17    8   79 1    
    18    8   80 1    
    19    9   10 ar   
    20    9   14 ar   
    21   10   11 ar   
    22   10   81 1    
    23   11   12 ar   
    24   11   71 1    
    25   12   13 ar   
    26   12   82 1    
    27   13   14 ar   
    28   13   15 1    
    29   14   83 1    
    30   15   16 1    
    31   15   84 1    
    32   15   85 1    
    33   16   17 1    
    34   17   18 1    
    35   17   86 1    
    36   17   87 1    
    37   18   19 1    
    38   18   37 1    
    39   18   88 1    
    40   19   20 am   BACKBONE|DICT|INTERRES
    41   19   89 1    
    42   20   21 2    
    43   20   22 1    
    44   22   23 1    
    45   22   24 1    
    46   22   90 1    
    47   23   91 1    
    48   23   92 1    
    49   23   93 1    
    50   24   25 am   BACKBONE|DICT|INTERRES
    51   24   94 1    
    52   25   26 2    
    53   25   27 1    
    54   27   28 1    
    55   27   29 1    
    56   27   95 1    
    57   28   96 1    
    58   28   97 1    
    59   28   98 1    
    60   29   30 am   BACKBONE|DICT|INTERRES
    61   29   99 1    
    62   30   31 2    
    63   30   32 1    
    64   32   33 1    
    65   32   34 1    
    66   32  100 1    
    67   33  101 1    
    68   33  102 1    
    69   33  103 1    
    70   34   35 am   BACKBONE|DICT|INTERRES
    71   34  104 1    
    72   35   36 2    
    73   37   38 2    
    74   37   39 am   BACKBONE|DICT|INTERRES
    75   39   40 1    
    76   39  105 1    
    77   40   41 1    
    78   40   42 1    
    79   40  106 1    
    80   41  107 1    
    81   41  108 1    
    82   41  109 1    
    83   42   43 2    
    84   42   44 am   BACKBONE|DICT|INTERRES
    85   44   45 1    
    86   44  110 1    
    87   45   46 1    
    88   45   47 1    
    89   45  111 1    
    90   46  112 1    
    91   46  113 1    
    92   46  114 1    
    93   47   48 2    
    94   47   49 am   BACKBONE|DICT|INTERRES
    95   49   50 1    
    96   49  115 1    
    97   50   51 1    
    98   50   52 1    
    99   50  116 1    
   100   51  117 1    
   101   51  118 1    
   102   51  119 1    
   103   52   53 2    
   104   52   54 am   BACKBONE|DICT|INTERRES
   105   54   55 1    
   106   54  120 1    
   107   55   56 1    
   108   55   57 1    
   109   55  121 1    
   110   56  122 1    
   111   56  123 1    
   112   56  124 1    
   113   57   58 2    
   114   57   59 am   BACKBONE|DICT|INTERRES
   115   59   60 1    
   116   59  125 1    
   117   60   61 1    
   118   60   62 1    
   119   60  126 1    
   120   61  127 1    
   121   61  128 1    
   122   61  129 1    
   123   62   63 2    
   124   62   64 am   BACKBONE|DICT|INTERRES
   125   64   65 1    
   126   64  130 1    
   127   65   66 1    
   128   65   69 1    
   129   65  131 1    
   130   66   67 am   BACKBONE|DICT|INTERRES
   131   66   68 2    
   132   67  132 1    
   133   67  133 1    
   134   69   70 1    
   135   69  134 1    
   136   69  135 1    
   137   70   71 1    
   138   71  136 1    
   139   71  137 1    
@<TRIPOS>SUBSTRUCTURE
     1 UNK         1 GROUP             0       ****    0 ROOT    
