@<TRIPOS>MOLECULE
3R137
137   139    1
SMALL
USER_CHARGES


@<TRIPOS>ATOM
      1 CA         27.1084   -6.5879   -0.3595 C.3       0 UNK        -0.2020 
      2 C          27.2435   -5.1278   -0.7624 C.2       0 UNK         0.4855 
      3 O          27.0268   -4.7972   -1.9273 O.2       0 UNK        -0.5197 
      4 N          27.5903   -4.2552    0.1948 N.am      1 UNK        -0.4892 
      5 CA         27.8278   -2.8037    0.0756 C.3       1 UNK         0.0835 
      6 C6         28.9656   -2.4261   -0.9084 C.3       12 UNK        -0.0855 
      7 S7         30.5925   -3.0512   -0.3656 S.3       12 UNK        -0.2931 
      8 C8         30.8800   -4.4447   -1.5053 C.3       12 UNK         0.0378 
      9 C9         30.9226   -4.0122   -2.9650 C.ar      12 UNK        -0.0802 
     10 C10        31.8964   -3.1089   -3.4043 C.ar      12 UNK        -0.0944 
     11 C11        31.9469   -2.7168   -4.7440 C.ar      12 UNK        -0.0787 
     12 C12        31.0113   -3.2359   -5.6421 C.ar      12 UNK        -0.0862 
     13 C13        30.0385   -4.1484   -5.2255 C.ar      12 UNK        -0.0733 
     14 C14        30.0010   -4.5336   -3.8805 C.ar      12 UNK        -0.0832 
     15 C15        29.0910   -4.7439   -6.2666 C.3       12 UNK         0.0240 
     16 S16        27.3796   -5.0299   -5.7002 S.3       12 UNK        -0.2522 
     17 C17        26.8355   -3.3720   -5.1777 C.3       12 UNK        -0.0967 
     18 CA         26.5544   -2.4038   -6.3631 C.3       5 UNK         0.0660 
     19 N          25.2901   -1.6791   -6.1977 N.am      5 UNK        -0.4015 
     20 C          24.6989   -0.9335   -7.1437 C.2       4 UNK         0.4946 
     21 O          25.1257   -0.8142   -8.2911 O.2       4 UNK        -0.5353 
     22 CA         23.4346   -0.1587   -6.7330 C.3       4 UNK         0.0277 
     23 CB         22.1865   -1.0430   -6.8828 C.3       4 UNK        -0.1981 
     24 N          23.5039    0.3673   -5.3675 N.am      4 UNK        -0.4209 
     25 C          24.3707    1.3063   -4.9606 C.2       3 UNK         0.4942 
     26 O          25.1691    1.8706   -5.7054 O.2       3 UNK        -0.5208 
     27 CA         24.3912    1.6316   -3.4584 C.3       3 UNK         0.0250 
     28 CB         23.3599    2.7219   -3.1275 C.3       3 UNK        -0.1990 
     29 N          24.1685    0.4625   -2.6004 N.am      3 UNK        -0.4232 
     30 C          24.9380   -0.6346   -2.5886 C.2       2 UNK         0.4993 
     31 O          25.9009   -0.8094   -3.3425 O.2       2 UNK        -0.5286 
     32 CA         24.5213   -1.7466   -1.6146 C.3       2 UNK         0.0209 
     33 CB         23.5789   -2.7455   -2.3056 C.3       2 UNK        -0.1931 
     34 N          25.6930   -2.4617   -1.1149 N.am      2 UNK        -0.4546 
     35 C          26.5609   -1.9735   -0.2226 C.2       1 UNK         0.5154 
     36 O          26.3908   -0.9061    0.3697 O.2       1 UNK        -0.5181 
     37 C          27.7127   -1.4091   -6.5555 C.2       5 UNK         0.5014 
     38 O          28.4804   -1.5294   -7.5140 O.2       5 UNK        -0.5248 
     39 N          27.7760   -0.4180   -5.6533 N.am      6 UNK        -0.4434 
     40 CA         28.7598    0.6607   -5.6775 C.3       6 UNK         0.0363 
     41 CB         28.6121    1.5368   -4.4249 C.3       6 UNK        -0.1936 
     42 C          28.6925    1.5016   -6.9605 C.2       6 UNK         0.5081 
     43 O          29.7332    1.7532   -7.5649 O.2       6 UNK        -0.5248 
     44 N          27.4758    1.8780   -7.3791 N.am      7 UNK        -0.4718 
     45 CA         27.2108    2.6173   -8.6151 C.3       7 UNK         0.0273 
     46 CB         25.7390    3.0575   -8.6515 C.3       7 UNK        -0.1935 
     47 C          27.5671    1.8322   -9.8874 C.2       7 UNK         0.5018 
     48 O          28.0998    2.4305  -10.8223 O.2       7 UNK        -0.5186 
     49 N          27.2841    0.5202   -9.9042 N.am      8 UNK        -0.4240 
     50 CA         27.6060   -0.3762  -11.0186 C.3       8 UNK         0.0235 
     51 CB         26.9286   -1.7410  -10.8145 C.3       8 UNK        -0.2000 
     52 C          29.1184   -0.5470  -11.2288 C.2       8 UNK         0.4941 
     53 O          29.5771   -0.4945  -12.3709 O.2       8 UNK        -0.5273 
     54 N          29.8647   -0.7342  -10.1316 N.am      9 UNK        -0.4262 
     55 CA         31.3266   -0.8409  -10.1548 C.3       9 UNK         0.0264 
     56 CB         31.7949   -1.5668   -8.8886 C.3       9 UNK        -0.1955 
     57 C          32.0405    0.5159  -10.2812 C.2       9 UNK         0.5031 
     58 O          33.1860    0.5447  -10.7332 O.2       9 UNK        -0.5390 
     59 N          31.3710    1.5956   -9.8525 N.am      10 UNK        -0.4204 
     60 CA         31.8745    2.9647   -9.6957 C.3       10 UNK         0.0237 
     61 CB         32.2865    3.5764  -11.0521 C.3       10 UNK        -0.1985 
     62 C          32.9707    3.0681   -8.6148 C.2       10 UNK         0.4970 
     63 O          33.8846    3.8848   -8.7475 O.2       10 UNK        -0.4914 
     64 N          32.8628    2.2372   -7.5689 N.am      11 UNK        -0.4285 
     65 CA         33.7674    2.2219   -6.4118 C.3       11 UNK         0.1007 
     66 C          33.3525    3.2427   -5.3147 C.2       11 UNK         0.5703 
     67 N          34.2316    3.5119   -4.3582 N.am      11 UNK        -0.7361 
     68 O          32.2504    3.7894   -5.3121 O.2       11 UNK        -0.4986 
     69 C69        33.9821    0.7831   -5.8651 C.3       12 UNK        -0.0947 
     70 S70        32.4783   -0.0401   -5.2419 S.3       12 UNK        -0.2240 
     71 C71        33.0353   -1.7704   -5.2316 C.3       12 UNK         0.0194 
     72 H72        27.7878   -7.2021   -0.9499 H         1 UNK         0.0906 
     73 H73        27.3378   -6.7453    0.6942 H         1 UNK         0.0906 
     74 H74        26.0913   -6.9338   -0.5418 H         1 UNK         0.0906 
     75 H75        27.7203   -4.6115    1.1319 H         1 UNK         0.3140 
     76 H76        28.1471   -2.4873    1.0704 H         1 UNK         0.1085 
     77 H77        28.7368   -2.7671   -1.9188 H         1 UNK         0.0836 
     78 H78        29.0592   -1.3406   -0.9832 H         1 UNK         0.0836 
     79 H79        31.8303   -4.9154   -1.2499 H         1 UNK         0.0731 
     80 H80        30.1133   -5.2028   -1.3438 H         1 UNK         0.0731 
     81 H81        32.6162   -2.7136   -2.7004 H         1 UNK         0.1312 
     82 H82        31.0497   -2.9421   -6.6780 H         1 UNK         0.1406 
     83 H83        29.2548   -5.2422   -3.5468 H         1 UNK         0.1631 
     84 H84        29.0558   -4.1156   -7.1572 H         1 UNK         0.0717 
     85 H85        29.5041   -5.6995   -6.5912 H         1 UNK         0.0717 
     86 H86        25.9256   -3.5366   -4.6002 H         1 UNK         0.0934 
     87 H87        27.5439   -2.9664   -4.4515 H         1 UNK         0.0934 
     88 H88        26.4627   -2.9811   -7.2859 H         1 UNK         0.0739 
     89 H89        24.9171   -1.6478   -5.2600 H         1 UNK         0.3093 
     90 H90        23.3347    0.6904   -7.4128 H         1 UNK         0.0818 
     91 H91        21.2749   -0.4808   -6.6790 H         1 UNK         0.0819 
     92 H92        22.1047   -1.4305   -7.8995 H         1 UNK         0.0819 
     93 H93        22.2115   -1.9001   -6.2087 H         1 UNK         0.0819 
     94 H94        22.8740   -0.0316   -4.6870 H         1 UNK         0.3041 
     95 H95        25.3844    2.0207   -3.2249 H         1 UNK         0.0784 
     96 H96        23.5197    3.6086   -3.7431 H         1 UNK         0.0793 
     97 H97        22.3386    2.3823   -3.3045 H         1 UNK         0.0793 
     98 H98        23.4345    3.0365   -2.0863 H         1 UNK         0.0793 
     99 H99        23.3896    0.5188   -1.9594 H         1 UNK         0.3024 
    100 H100       24.0009   -1.2991   -0.7645 H         1 UNK         0.1171 
    101 H101       23.2531   -3.5225   -1.6136 H         1 UNK         0.0786 
    102 H102       22.6816   -2.2490   -2.6773 H         1 UNK         0.0786 
    103 H103       24.0569   -3.2364   -3.1534 H         1 UNK         0.0786 
    104 H104       25.9589   -3.3227   -1.5877 H         1 UNK         0.2977 
    105 H105       27.1058   -0.4154   -4.8889 H         1 UNK         0.3127 
    106 H106       29.7393    0.1867   -5.6492 H         1 UNK         0.0770 
    107 H107       27.6407    2.0303   -4.3885 H         1 UNK         0.0814 
    108 H108       29.3768    2.3148   -4.4059 H         1 UNK         0.0814 
    109 H109       28.7248    0.9480   -3.5143 H         1 UNK         0.0814 
    110 H110       26.6698    1.6758   -6.7905 H         1 UNK         0.2983 
    111 H111       27.8338    3.5144   -8.6003 H         1 UNK         0.0947 
    112 H112       25.5205    3.6214   -9.5594 H         1 UNK         0.0806 
    113 H113       25.4969    3.7002   -7.8049 H         1 UNK         0.0806 
    114 H114       25.0629    2.2020   -8.6258 H         1 UNK         0.0806 
    115 H115       26.7969    0.1094   -9.1138 H         1 UNK         0.3000 
    116 H116       27.1974    0.0685  -11.9286 H         1 UNK         0.0850 
    117 H117       27.1744   -2.4263  -11.6267 H         1 UNK         0.0810 
    118 H118       25.8432   -1.6433  -10.7925 H         1 UNK         0.0810 
    119 H119       27.2400   -2.2129   -9.8819 H         1 UNK         0.0810 
    120 H120       29.4023   -0.8171   -9.2299 H         1 UNK         0.3040 
    121 H121       31.6213   -1.4447  -11.0161 H         1 UNK         0.0766 
    122 H122       31.4093   -2.5856   -8.8659 H         1 UNK         0.0812 
    123 H123       31.4609   -1.0497   -7.9882 H         1 UNK         0.0812 
    124 H124       32.8833   -1.6309   -8.8474 H         1 UNK         0.0812 
    125 H125       30.4684    1.4384   -9.4152 H         1 UNK         0.3205 
    126 H126       31.0320    3.5473   -9.3200 H         1 UNK         0.0754 
    127 H127       32.5064    4.6396  -10.9497 H         1 UNK         0.0769 
    128 H128       31.4869    3.4810  -11.7870 H         1 UNK         0.0769 
    129 H129       33.1778    3.0995  -11.4605 H         1 UNK         0.0769 
    130 H130       32.0252    1.6761   -7.4837 H         1 UNK         0.2981 
    131 H131       34.7456    2.5573   -6.7620 H         1 UNK         0.0541 
    132 H132       35.1387    3.0728   -4.3428 H         1 UNK         0.3459 
    133 H133       33.9808    4.1684   -3.6356 H         1 UNK         0.3459 
    134 H134       34.7258    0.7839   -5.0668 H         1 UNK         0.0612 
    135 H135       34.4051    0.1652   -6.6588 H         1 UNK         0.0612 
    136 H136       33.9198   -1.8569   -4.5986 H         1 UNK         0.0624 
    137 H137       33.3479   -2.0553   -6.2372 H         1 UNK         0.0624 
@<TRIPOS>BOND
     1    1    2 1    
     2    1   72 1    
     3    1   73 1    
     4    1   74 1    
     5    2    3 2    
     6    2    4 am   BACKBONE|DICT|INTERRES
     7    4    5 1    
     8    4   75 1    
     9    5    6 1    
    10    5   35 1    
    11    5   76 1    
    12    6    7 1    
    13    6   77 1    
    14    6   78 1    
    15    7    8 1    
    16    8    9 1    
    17    8   79 1    
    18    8   80 1    
    19    9   10 ar   
    20    9   14 ar   
    21   10   11 ar   
    22   10   81 1    
    23   11   12 ar   
    24   11   71 1    
    25   12   13 ar   
    26   12   82 1    
    27   13   14 ar   
    28   13   15 1    
    29   14   83 1    
    30   15   16 1    
    31   15   84 1    
    32   15   85 1    
    33   16   17 1    
    34   17   18 1    
    35   17   86 1    
    36   17   87 1    
    37   18   19 1    
    38   18   37 1    
    39   18   88 1    
    40   19   20 am   BACKBONE|DICT|INTERRES
    41   19   89 1    
    42   20   21 2    
    43   20   22 1    
    44   22   23 1    
    45   22   24 1    
    46   22   90 1    
    47   23   91 1    
    48   23   92 1    
    49   23   93 1    
    50   24   25 am   BACKBONE|DICT|INTERRES
    51   24   94 1    
    52   25   26 2    
    53   25   27 1    
    54   27   28 1    
    55   27   29 1    
    56   27   95 1    
    57   28   96 1    
    58   28   97 1    
    59   28   98 1    
    60   29   30 am   BACKBONE|DICT|INTERRES
    61   29   99 1    
    62   30   31 2    
    63   30   32 1    
    64   32   33 1    
    65   32   34 1    
    66   32  100 1    
    67   33  101 1    
    68   33  102 1    
    69   33  103 1    
    70   34   35 am   BACKBONE|DICT|INTERRES
    71   34  104 1    
    72   35   36 2    
    73   37   38 2    
    74   37   39 am   BACKBONE|DICT|INTERRES
    75   39   40 1    
    76   39  105 1    
    77   40   41 1    
    78   40   42 1    
    79   40  106 1    
    80   41  107 1    
    81   41  108 1    
    82   41  109 1    
    83   42   43 2    
    84   42   44 am   BACKBONE|DICT|INTERRES
    85   44   45 1    
    86   44  110 1    
    87   45   46 1    
    88   45   47 1    
    89   45  111 1    
    90   46  112 1    
    91   46  113 1    
    92   46  114 1    
    93   47   48 2    
    94   47   49 am   BACKBONE|DICT|INTERRES
    95   49   50 1    
    96   49  115 1    
    97   50   51 1    
    98   50   52 1    
    99   50  116 1    
   100   51  117 1    
   101   51  118 1    
   102   51  119 1    
   103   52   53 2    
   104   52   54 am   BACKBONE|DICT|INTERRES
   105   54   55 1    
   106   54  120 1    
   107   55   56 1    
   108   55   57 1    
   109   55  121 1    
   110   56  122 1    
   111   56  123 1    
   112   56  124 1    
   113   57   58 2    
   114   57   59 am   BACKBONE|DICT|INTERRES
   115   59   60 1    
   116   59  125 1    
   117   60   61 1    
   118   60   62 1    
   119   60  126 1    
   120   61  127 1    
   121   61  128 1    
   122   61  129 1    
   123   62   63 2    
   124   62   64 am   BACKBONE|DICT|INTERRES
   125   64   65 1    
   126   64  130 1    
   127   65   66 1    
   128   65   69 1    
   129   65  131 1    
   130   66   67 am   BACKBONE|DICT|INTERRES
   131   66   68 2    
   132   67  132 1    
   133   67  133 1    
   134   69   70 1    
   135   69  134 1    
   136   69  135 1    
   137   70   71 1    
   138   71  136 1    
   139   71  137 1    
@<TRIPOS>SUBSTRUCTURE
     1 UNK         1 GROUP             0       ****    0 ROOT    
