@<TRIPOS>MOLECULE
3R137
137   139    1
SMALL
USER_CHARGES


@<TRIPOS>ATOM
      1 CA         26.0054   -8.3989    0.9897 C.3       0 UNK        -0.2020 
      2 C          25.7317   -6.9027    0.9664 C.2       0 UNK         0.4855 
      3 O          24.7768   -6.4446    1.5941 O.2       0 UNK        -0.5197 
      4 N          26.5618   -6.1366    0.2468 N.am      1 UNK        -0.4892 
      5 CA         26.4388   -4.6812    0.0843 C.3       1 UNK         0.0835 
      6 C6         27.7732   -4.0442   -0.3771 C.3       12 UNK        -0.0855 
      7 S7         28.4366   -4.7640   -1.9216 S.3       12 UNK        -0.2931 
      8 C8         28.2325   -3.3814   -3.0838 C.3       12 UNK         0.0378 
      9 C9         29.4121   -2.4221   -3.0309 C.ar      12 UNK        -0.0802 
     10 C10        30.5276   -2.6535   -3.8393 C.ar      12 UNK        -0.0944 
     11 C11        31.6078   -1.7674   -3.8347 C.ar      12 UNK        -0.0787 
     12 C12        31.5707   -0.6416   -3.0064 C.ar      12 UNK        -0.0862 
     13 C13        30.4634   -0.4005   -2.1856 C.ar      12 UNK        -0.0733 
     14 C14        29.3882   -1.2976   -2.1995 C.ar      12 UNK        -0.0832 
     15 C15        30.4290    0.8328   -1.2905 C.3       12 UNK         0.0240 
     16 S16        29.0109    1.9229   -1.6459 S.3       12 UNK        -0.2522 
     17 C17        29.3494    2.4666   -3.3568 C.3       12 UNK        -0.0967 
     18 CA         28.6764    1.5437   -4.4099 C.3       5 UNK         0.0660 
     19 N          27.2324    1.3937   -4.2055 N.am      5 UNK        -0.4015 
     20 C          26.2381    2.2184   -4.5583 C.2       4 UNK         0.4946 
     21 O          26.3929    3.2554   -5.2071 O.2       4 UNK        -0.5353 
     22 CA         24.8236    1.7837   -4.1204 C.3       4 UNK         0.0277 
     23 CB         23.7241    2.7578   -4.5843 C.3       4 UNK        -0.1981 
     24 N          24.4930    0.4289   -4.5781 N.am      4 UNK        -0.4209 
     25 C          24.9302   -0.7008   -4.0081 C.2       3 UNK         0.4942 
     26 O          25.6738   -0.7266   -3.0239 O.2       3 UNK        -0.5208 
     27 CA         24.5250   -2.0136   -4.6793 C.3       3 UNK         0.0250 
     28 CB         25.5600   -2.4143   -5.7493 C.3       3 UNK        -0.1990 
     29 N          24.4071   -3.0402   -3.6453 N.am      3 UNK        -0.4232 
     30 C          23.7335   -4.1888   -3.7654 C.2       2 UNK         0.4993 
     31 O          23.2194   -4.5572   -4.8236 O.2       2 UNK        -0.5286 
     32 CA         23.5805   -5.0624   -2.5010 C.3       2 UNK         0.0209 
     33 CB         23.0770   -6.4831   -2.8227 C.3       2 UNK        -0.1931 
     34 N          24.7975   -5.1768   -1.6910 N.am      2 UNK        -0.4546 
     35 C          25.2501   -4.2690   -0.8150 C.2       1 UNK         0.5154 
     36 O          24.7536   -3.1491   -0.6903 O.2       1 UNK        -0.5181 
     37 C          29.0208    1.8959   -5.8683 C.2       5 UNK         0.5014 
     38 O          28.9827    1.0060   -6.7177 O.2       5 UNK        -0.5248 
     39 N          29.2998    3.1780   -6.1501 N.am      6 UNK        -0.4434 
     40 CA         29.6165    3.7225   -7.4763 C.3       6 UNK         0.0363 
     41 CB         29.8702    5.2328   -7.3550 C.3       6 UNK        -0.1936 
     42 C          28.5661    3.4380   -8.5684 C.2       6 UNK         0.5081 
     43 O          28.9172    3.4534   -9.7477 O.2       6 UNK        -0.5248 
     44 N          27.3233    3.1159   -8.1774 N.am      7 UNK        -0.4718 
     45 CA         26.2739    2.5915   -9.0599 C.3       7 UNK         0.0273 
     46 CB         24.9768    2.4237   -8.2556 C.3       7 UNK        -0.1935 
     47 C          26.6414    1.2670   -9.7637 C.2       7 UNK         0.5018 
     48 O          26.0820    0.9818  -10.8227 O.2       7 UNK        -0.5186 
     49 N          27.5882    0.5008   -9.1981 N.am      8 UNK        -0.4240 
     50 CA         28.1787   -0.6926   -9.8124 C.3       8 UNK         0.0235 
     51 CB         28.7932   -1.5733   -8.7096 C.3       8 UNK        -0.2000 
     52 C          29.2299   -0.3712  -10.8961 C.2       8 UNK         0.4941 
     53 O          29.7492   -1.3046  -11.5106 O.2       8 UNK        -0.5273 
     54 N          29.5548    0.9161  -11.1014 N.am      9 UNK        -0.4262 
     55 CA         30.5156    1.4903  -12.0532 C.3       9 UNK         0.0264 
     56 CB         30.1661    1.1398  -13.5132 C.3       9 UNK        -0.1955 
     57 C          31.9815    1.1677  -11.7257 C.2       9 UNK         0.5031 
     58 O          32.7791    2.0922  -11.5640 O.2       9 UNK        -0.5390 
     59 N          32.3088   -0.1244  -11.5966 N.am      10 UNK        -0.4204 
     60 CA         33.6439   -0.6367  -11.2648 C.3       10 UNK         0.0237 
     61 CB         33.6331   -2.1712  -11.3534 C.3       10 UNK        -0.1985 
     62 C          34.1537   -0.1803   -9.8856 C.2       10 UNK         0.4970 
     63 O          35.3610   -0.0124   -9.7104 O.2       10 UNK        -0.4914 
     64 N          33.2217    0.0276   -8.9496 N.am      11 UNK        -0.4285 
     65 CA         33.4670    0.5708   -7.6069 C.3       11 UNK         0.1007 
     66 C          33.5640    2.1253   -7.5634 C.2       11 UNK         0.5703 
     67 N          33.3967    2.8472   -8.6669 N.am      11 UNK        -0.7361 
     68 O          33.8078    2.6922   -6.5014 O.2       11 UNK        -0.4986 
     69 C69        32.4181    0.0397   -6.5971 C.3       12 UNK        -0.0947 
     70 S70        32.4280   -1.7812   -6.4801 S.3       12 UNK        -0.2240 
     71 C71        32.8141   -2.0421   -4.7212 C.3       12 UNK         0.0194 
     72 H72        26.8813   -8.6632    0.3973 H         1 UNK         0.0906 
     73 H73        26.1751   -8.7332    2.0129 H         1 UNK         0.0906 
     74 H74        25.1496   -8.9429    0.5909 H         1 UNK         0.0906 
     75 H75        27.3355   -6.5585   -0.2496 H         1 UNK         0.3140 
     76 H76        26.2146   -4.2667    1.0702 H         1 UNK         0.1085 
     77 H77        28.5266   -4.1865    0.3992 H         1 UNK         0.0836 
     78 H78        27.6640   -2.9633   -0.4732 H         1 UNK         0.0836 
     79 H79        28.1404   -3.7916   -4.0903 H         1 UNK         0.0731 
     80 H80        27.2977   -2.8572   -2.8840 H         1 UNK         0.0731 
     81 H81        30.5534   -3.5225   -4.4829 H         1 UNK         0.1312 
     82 H82        32.4049    0.0467   -3.0014 H         1 UNK         0.1406 
     83 H83        28.5240   -1.1027   -1.5792 H         1 UNK         0.1631 
     84 H84        31.3509    1.4097   -1.3797 H         1 UNK         0.0717 
     85 H85        30.3699    0.5096   -0.2504 H         1 UNK         0.0717 
     86 H86        28.9818    3.4901   -3.4470 H         1 UNK         0.0934 
     87 H87        30.4298    2.5083   -3.5098 H         1 UNK         0.0934 
     88 H88        29.0831    0.5425   -4.2782 H         1 UNK         0.0739 
     89 H89        26.9565    0.5622   -3.6909 H         1 UNK         0.3093 
     90 H90        24.8215    1.7915   -3.0279 H         1 UNK         0.0818 
     91 H91        22.7509    2.4756   -4.1824 H         1 UNK         0.0819 
     92 H92        23.9301    3.7727   -4.2415 H         1 UNK         0.0819 
     93 H93        23.6399    2.7918   -5.6698 H         1 UNK         0.0819 
     94 H94        23.9153    0.3639   -5.4040 H         1 UNK         0.3041 
     95 H95        23.5484   -1.8798   -5.1497 H         1 UNK         0.0784 
     96 H96        25.6140   -1.6644   -6.5397 H         1 UNK         0.0793 
     97 H97        26.5606   -2.5095   -5.3291 H         1 UNK         0.0793 
     98 H98        25.3041   -3.3618   -6.2233 H         1 UNK         0.0793 
     99 H99        24.7632   -2.7720   -2.7312 H         1 UNK         0.3024 
    100 H100       22.8145   -4.5765   -1.8920 H         1 UNK         0.1171 
    101 H101       22.1201   -6.4538   -3.3458 H         1 UNK         0.0786 
    102 H102       22.9247   -7.0660   -1.9139 H         1 UNK         0.0786 
    103 H103       23.7799   -7.0251   -3.4565 H         1 UNK         0.0786 
    104 H104       25.2979   -6.0518   -1.7510 H         1 UNK         0.2977 
    105 H105       29.2366    3.8509   -5.4006 H         1 UNK         0.3127 
    106 H106       30.5432    3.2463   -7.8024 H         1 UNK         0.0770 
    107 H107       28.9870    5.7618   -6.9945 H         1 UNK         0.0814 
    108 H108       30.1359    5.6628   -8.3219 H         1 UNK         0.0814 
    109 H109       30.6939    5.4444   -6.6730 H         1 UNK         0.0814 
    110 H110       27.1112    3.1458   -7.1846 H         1 UNK         0.2983 
    111 H111       26.1016    3.3345   -9.8415 H         1 UNK         0.0947 
    112 H112       24.1609    2.0818   -8.8941 H         1 UNK         0.0806 
    113 H113       24.6648    3.3681   -7.8094 H         1 UNK         0.0806 
    114 H114       25.0945    1.6926   -7.4554 H         1 UNK         0.0806 
    115 H115       28.0002    0.7969   -8.3146 H         1 UNK         0.3000 
    116 H116       27.3825   -1.2624  -10.2959 H         1 UNK         0.0850 
    117 H117       29.1489   -2.5206   -9.1168 H         1 UNK         0.0810 
    118 H118       29.6442   -1.0879   -8.2307 H         1 UNK         0.0810 
    119 H119       28.0640   -1.8085   -7.9340 H         1 UNK         0.0810 
    120 H120       29.1029    1.6132  -10.5168 H         1 UNK         0.3040 
    121 H121       30.4078    2.5715  -11.9509 H         1 UNK         0.0766 
    122 H122       29.1475    1.4409  -13.7578 H         1 UNK         0.0812 
    123 H123       30.2570    0.0727  -13.7171 H         1 UNK         0.0812 
    124 H124       30.8316    1.6575  -14.2052 H         1 UNK         0.0812 
    125 H125       31.5550   -0.8012  -11.7027 H         1 UNK         0.3205 
    126 H126       34.3398   -0.2528  -12.0136 H         1 UNK         0.0754 
    127 H127       34.6190   -2.5828  -11.1325 H         1 UNK         0.0769 
    128 H128       33.3588   -2.5090  -12.3530 H         1 UNK         0.0769 
    129 H129       32.9290   -2.6110  -10.6455 H         1 UNK         0.0769 
    130 H130       32.2573   -0.1445   -9.1863 H         1 UNK         0.2981 
    131 H131       34.4431    0.2132   -7.2739 H         1 UNK         0.0541 
    132 H132       33.4782    3.8492   -8.6073 H         1 UNK         0.3459 
    133 H133       33.2266    2.4135   -9.5663 H         1 UNK         0.3459 
    134 H134       31.4201    0.3501   -6.9003 H         1 UNK         0.0612 
    135 H135       32.5820    0.4651   -5.6060 H         1 UNK         0.0612 
    136 H136       33.6656   -1.4224   -4.4360 H         1 UNK         0.0624 
    137 H137       33.1293   -3.0772   -4.5827 H         1 UNK         0.0624 
@<TRIPOS>BOND
     1    1    2 1    
     2    1   72 1    
     3    1   73 1    
     4    1   74 1    
     5    2    3 2    
     6    2    4 am   BACKBONE|DICT|INTERRES
     7    4    5 1    
     8    4   75 1    
     9    5    6 1    
    10    5   35 1    
    11    5   76 1    
    12    6    7 1    
    13    6   77 1    
    14    6   78 1    
    15    7    8 1    
    16    8    9 1    
    17    8   79 1    
    18    8   80 1    
    19    9   10 ar   
    20    9   14 ar   
    21   10   11 ar   
    22   10   81 1    
    23   11   12 ar   
    24   11   71 1    
    25   12   13 ar   
    26   12   82 1    
    27   13   14 ar   
    28   13   15 1    
    29   14   83 1    
    30   15   16 1    
    31   15   84 1    
    32   15   85 1    
    33   16   17 1    
    34   17   18 1    
    35   17   86 1    
    36   17   87 1    
    37   18   19 1    
    38   18   37 1    
    39   18   88 1    
    40   19   20 am   BACKBONE|DICT|INTERRES
    41   19   89 1    
    42   20   21 2    
    43   20   22 1    
    44   22   23 1    
    45   22   24 1    
    46   22   90 1    
    47   23   91 1    
    48   23   92 1    
    49   23   93 1    
    50   24   25 am   BACKBONE|DICT|INTERRES
    51   24   94 1    
    52   25   26 2    
    53   25   27 1    
    54   27   28 1    
    55   27   29 1    
    56   27   95 1    
    57   28   96 1    
    58   28   97 1    
    59   28   98 1    
    60   29   30 am   BACKBONE|DICT|INTERRES
    61   29   99 1    
    62   30   31 2    
    63   30   32 1    
    64   32   33 1    
    65   32   34 1    
    66   32  100 1    
    67   33  101 1    
    68   33  102 1    
    69   33  103 1    
    70   34   35 am   BACKBONE|DICT|INTERRES
    71   34  104 1    
    72   35   36 2    
    73   37   38 2    
    74   37   39 am   BACKBONE|DICT|INTERRES
    75   39   40 1    
    76   39  105 1    
    77   40   41 1    
    78   40   42 1    
    79   40  106 1    
    80   41  107 1    
    81   41  108 1    
    82   41  109 1    
    83   42   43 2    
    84   42   44 am   BACKBONE|DICT|INTERRES
    85   44   45 1    
    86   44  110 1    
    87   45   46 1    
    88   45   47 1    
    89   45  111 1    
    90   46  112 1    
    91   46  113 1    
    92   46  114 1    
    93   47   48 2    
    94   47   49 am   BACKBONE|DICT|INTERRES
    95   49   50 1    
    96   49  115 1    
    97   50   51 1    
    98   50   52 1    
    99   50  116 1    
   100   51  117 1    
   101   51  118 1    
   102   51  119 1    
   103   52   53 2    
   104   52   54 am   BACKBONE|DICT|INTERRES
   105   54   55 1    
   106   54  120 1    
   107   55   56 1    
   108   55   57 1    
   109   55  121 1    
   110   56  122 1    
   111   56  123 1    
   112   56  124 1    
   113   57   58 2    
   114   57   59 am   BACKBONE|DICT|INTERRES
   115   59   60 1    
   116   59  125 1    
   117   60   61 1    
   118   60   62 1    
   119   60  126 1    
   120   61  127 1    
   121   61  128 1    
   122   61  129 1    
   123   62   63 2    
   124   62   64 am   BACKBONE|DICT|INTERRES
   125   64   65 1    
   126   64  130 1    
   127   65   66 1    
   128   65   69 1    
   129   65  131 1    
   130   66   67 am   BACKBONE|DICT|INTERRES
   131   66   68 2    
   132   67  132 1    
   133   67  133 1    
   134   69   70 1    
   135   69  134 1    
   136   69  135 1    
   137   70   71 1    
   138   71  136 1    
   139   71  137 1    
@<TRIPOS>SUBSTRUCTURE
     1 UNK         1 GROUP             0       ****    0 ROOT    
