@<TRIPOS>MOLECULE
3R137
137   139    1
SMALL
USER_CHARGES


@<TRIPOS>ATOM
      1 CA         28.7784   -1.5723    3.3773 C.3       0 UNK        -0.2020 
      2 C          28.6612   -0.7830    2.0821 C.2       0 UNK         0.4855 
      3 O          28.5634    0.4436    2.1192 O.2       0 UNK        -0.5197 
      4 N          28.6729   -1.4769    0.9367 N.am      1 UNK        -0.4892 
      5 CA         28.5337   -0.8930   -0.4039 C.3       1 UNK         0.0835 
      6 C6         28.9663   -1.8910   -1.5093 C.3       12 UNK        -0.0855 
      7 S7         28.0674   -3.4861   -1.4516 S.3       12 UNK        -0.2931 
      8 C8         29.4087   -4.7009   -1.6381 C.3       12 UNK         0.0378 
      9 C9         30.0300   -4.6448   -3.0258 C.ar      12 UNK        -0.0802 
     10 C10        31.2703   -4.0283   -3.2159 C.ar      12 UNK        -0.0944 
     11 C11        31.8540   -3.9688   -4.4845 C.ar      12 UNK        -0.0787 
     12 C12        31.1866   -4.5575   -5.5656 C.ar      12 UNK        -0.0862 
     13 C13        29.9350   -5.1557   -5.3949 C.ar      12 UNK        -0.0733 
     14 C14        29.3647   -5.2072   -4.1199 C.ar      12 UNK        -0.0832 
     15 C15        29.1885   -5.7052   -6.6038 C.3       12 UNK         0.0240 
     16 S16        27.8500   -4.5942   -7.1600 S.3       12 UNK        -0.2522 
     17 C17        28.6609   -2.9573   -7.1005 C.3       12 UNK        -0.0967 
     18 CA         27.8667   -1.8164   -7.7835 C.3       5 UNK         0.0660 
     19 N          26.4430   -1.8481   -7.4303 N.am      5 UNK        -0.4015 
     20 C          25.5031   -0.9471   -7.7503 C.2       4 UNK         0.4946 
     21 O          25.7093    0.0298   -8.4698 O.2       4 UNK        -0.5353 
     22 CA         24.1109   -1.1237   -7.1183 C.3       4 UNK         0.0277 
     23 CB         23.1342   -1.7146   -8.1471 C.3       4 UNK        -0.1981 
     24 N          24.0856   -1.9395   -5.8960 N.am      4 UNK        -0.4209 
     25 C          24.7877   -1.7002   -4.7782 C.2       3 UNK         0.4942 
     26 O          25.5968   -0.7759   -4.6560 O.2       3 UNK        -0.5208 
     27 CA         24.6124   -2.7285   -3.6501 C.3       3 UNK         0.0250 
     28 CB         25.5209   -3.9435   -3.9067 C.3       3 UNK        -0.1990 
     29 N          24.9238   -2.1612   -2.3369 N.am      3 UNK        -0.4232 
     30 C          24.1688   -1.2567   -1.6948 C.2       2 UNK         0.4993 
     31 O          23.0851   -0.8516   -2.1190 O.2       2 UNK        -0.5286 
     32 CA         24.6811   -0.7269   -0.3404 C.3       2 UNK         0.0209 
     33 CB         23.8595   -1.3188    0.8172 C.3       2 UNK        -0.1931 
     34 N          26.0990   -1.0094   -0.1050 N.am      2 UNK        -0.4546 
     35 C          27.1155   -0.3458   -0.6738 C.2       1 UNK         0.5154 
     36 O          26.9688    0.6462   -1.3875 O.2       1 UNK        -0.5181 
     37 C          28.5442   -0.4718   -7.4424 C.2       5 UNK         0.5014 
     38 O          29.4125   -0.0225   -8.1925 O.2       5 UNK        -0.5248 
     39 N          28.1183    0.1593   -6.3374 N.am      6 UNK        -0.4434 
     40 CA         28.5948    1.4673   -5.8849 C.3       6 UNK         0.0363 
     41 CB         28.0795    1.7222   -4.4608 C.3       6 UNK        -0.1936 
     42 C          28.2177    2.6338   -6.8175 C.2       6 UNK         0.5081 
     43 O          28.8543    3.6839   -6.7370 O.2       6 UNK        -0.5248 
     44 N          27.2141    2.4398   -7.6832 N.am      7 UNK        -0.4718 
     45 CA         26.8024    3.3943   -8.7118 C.3       7 UNK         0.0273 
     46 CB         25.2834    3.6169   -8.6200 C.3       7 UNK        -0.1935 
     47 C          27.1910    2.8923  -10.1096 C.2       7 UNK         0.5018 
     48 O          27.7293    3.6679  -10.8989 O.2       7 UNK        -0.5186 
     49 N          26.9097    1.6123  -10.3935 N.am      8 UNK        -0.4240 
     50 CA         27.0893    0.9830  -11.7033 C.3       8 UNK         0.0235 
     51 CB         26.3402   -0.3598  -11.7312 C.3       8 UNK        -0.2000 
     52 C          28.5602    0.7881  -12.0993 C.2       8 UNK         0.4941 
     53 O          28.9107    1.0538  -13.2498 O.2       8 UNK        -0.5273 
     54 N          29.3858    0.3266  -11.1510 N.am      9 UNK        -0.4262 
     55 CA         30.8174    0.0758  -11.3460 C.3       9 UNK         0.0264 
     56 CB         31.1358   -1.3545  -10.8726 C.3       9 UNK        -0.1955 
     57 C          31.6951    1.0977  -10.6033 C.2       9 UNK         0.5031 
     58 O          32.9155    1.0586  -10.7659 O.2       9 UNK        -0.5390 
     59 N          31.0735    1.9653   -9.7878 N.am      10 UNK        -0.4204 
     60 CA         31.6929    2.9079   -8.8471 C.3       10 UNK         0.0237 
     61 CB         32.4641    4.0150   -9.5977 C.3       10 UNK        -0.1985 
     62 C          32.5424    2.1971   -7.7717 C.2       10 UNK         0.4970 
     63 O          33.5755    2.7268   -7.3577 O.2       10 UNK        -0.4914 
     64 N          32.1090    0.9949   -7.3665 N.am      11 UNK        -0.4285 
     65 CA         32.8224    0.1180   -6.4301 C.3       11 UNK         0.1007 
     66 C          32.8827    0.6792   -4.9827 C.2       11 UNK         0.5703 
     67 N          33.9705    0.4321   -4.2656 N.am      11 UNK        -0.7361 
     68 O          31.9425    1.3021   -4.4945 O.2       11 UNK        -0.4986 
     69 C69        32.2417   -1.3207   -6.4714 C.3       12 UNK        -0.0947 
     70 S70        33.5409   -2.5899   -6.3029 S.3       12 UNK        -0.2240 
     71 C71        33.2053   -3.2702   -4.6416 C.3       12 UNK         0.0194 
     72 H72        28.8662   -2.6435    3.1965 H         1 UNK         0.0906 
     73 H73        29.6574   -1.2498    3.9348 H         1 UNK         0.0906 
     74 H74        27.8997   -1.4044    3.9995 H         1 UNK         0.0906 
     75 H75        28.7568   -2.4840    0.9601 H         1 UNK         0.3140 
     76 H76        29.2065   -0.0337   -0.4570 H         1 UNK         0.1085 
     77 H77        28.8386   -1.4540   -2.5021 H         1 UNK         0.0836 
     78 H78        30.0360   -2.0785   -1.4111 H         1 UNK         0.0836 
     79 H79        29.0059   -5.6996   -1.4631 H         1 UNK         0.0731 
     80 H80        30.1611   -4.5370   -0.8649 H         1 UNK         0.0731 
     81 H81        31.7834   -3.5883   -2.3716 H         1 UNK         0.1312 
     82 H82        31.6238   -4.5291   -6.5535 H         1 UNK         0.1406 
     83 H83        28.3943   -5.6650   -3.9826 H         1 UNK         0.1631 
     84 H84        28.7639   -6.6806   -6.3619 H         1 UNK         0.0717 
     85 H85        29.8760   -5.8703   -7.4349 H         1 UNK         0.0717 
     86 H86        28.8298   -2.7239   -6.0462 H         1 UNK         0.0934 
     87 H87        29.6489   -3.0429   -7.5574 H         1 UNK         0.0934 
     88 H88        27.9266   -1.9511   -8.8650 H         1 UNK         0.0739 
     89 H89        26.1667   -2.6277   -6.8520 H         1 UNK         0.3093 
     90 H90        23.7605   -0.1258   -6.8468 H         1 UNK         0.0818 
     91 H91        22.1156   -1.7418   -7.7596 H         1 UNK         0.0819 
     92 H92        23.1147   -1.1129   -9.0574 H         1 UNK         0.0819 
     93 H93        23.4137   -2.7291   -8.4341 H         1 UNK         0.0819 
     94 H94        23.4641   -2.7360   -5.9083 H         1 UNK         0.3041 
     95 H95        23.5726   -3.0625   -3.6351 H         1 UNK         0.0784 
     96 H96        25.2361   -4.4630   -4.8225 H         1 UNK         0.0793 
     97 H97        26.5658   -3.6493   -4.0163 H         1 UNK         0.0793 
     98 H98        25.4596   -4.6680   -3.0943 H         1 UNK         0.0793 
     99 H99        25.8150   -2.4166   -1.9345 H         1 UNK         0.3024 
    100 H100       24.5387    0.3564   -0.3453 H         1 UNK         0.1171 
    101 H101       24.1681   -0.9024    1.7764 H         1 UNK         0.0786 
    102 H102       22.7981   -1.0971    0.6966 H         1 UNK         0.0786 
    103 H103       23.9616   -2.4034    0.8720 H         1 UNK         0.0786 
    104 H104       26.3201   -1.8084    0.4719 H         1 UNK         0.2977 
    105 H105       27.3725   -0.2590   -5.7900 H         1 UNK         0.3127 
    106 H106       29.6840    1.4291   -5.8492 H         1 UNK         0.0770 
    107 H107       26.9895    1.7359   -4.4204 H         1 UNK         0.0814 
    108 H108       28.4346    2.6807   -4.0801 H         1 UNK         0.0814 
    109 H109       28.4293    0.9536   -3.7715 H         1 UNK         0.0814 
    110 H110       26.7484    1.5382   -7.6966 H         1 UNK         0.2983 
    111 H111       27.2927    4.3587   -8.5606 H         1 UNK         0.0947 
    112 H112       24.9443    4.3168   -9.3849 H         1 UNK         0.0806 
    113 H113       25.0050    4.0350   -7.6526 H         1 UNK         0.0806 
    114 H114       24.7256    2.6891   -8.7547 H         1 UNK         0.0806 
    115 H115       26.4465    1.0455   -9.6828 H         1 UNK         0.3000 
    116 H116       26.6335    1.6379  -12.4493 H         1 UNK         0.0850 
    117 H117       26.4312   -0.8386  -12.7071 H         1 UNK         0.0810 
    118 H118       25.2764   -0.2234  -11.5353 H         1 UNK         0.0810 
    119 H119       26.7280   -1.0566  -10.9873 H         1 UNK         0.0810 
    120 H120       29.0250    0.1394  -10.2220 H         1 UNK         0.3040 
    121 H121       31.0790    0.1448  -12.4039 H         1 UNK         0.0766 
    122 H122       30.9329   -1.4874   -9.8100 H         1 UNK         0.0812 
    123 H123       32.1873   -1.5956  -11.0341 H         1 UNK         0.0812 
    124 H124       30.5486   -2.0919  -11.4199 H         1 UNK         0.0812 
    125 H125       30.0686    1.8899   -9.7262 H         1 UNK         0.3205 
    126 H126       30.8747    3.3907   -8.3151 H         1 UNK         0.0754 
    127 H127       32.8013    4.7911   -8.9096 H         1 UNK         0.0769 
    128 H128       31.8351    4.4980  -10.3454 H         1 UNK         0.0769 
    129 H129       33.3475    3.6241  -10.1035 H         1 UNK         0.0769 
    130 H130       31.2298    0.6431   -7.7305 H         1 UNK         0.2981 
    131 H131       33.8478    0.0824   -6.8048 H         1 UNK         0.0541 
    132 H132       34.7403   -0.0905   -4.6529 H         1 UNK         0.3459 
    133 H133       34.0235    0.7798   -3.3213 H         1 UNK         0.3459 
    134 H134       31.4531   -1.4630   -5.7298 H         1 UNK         0.0612 
    135 H135       31.7689   -1.5122   -7.4357 H         1 UNK         0.0612 
    136 H136       33.9919   -3.9850   -4.3980 H         1 UNK         0.0624 
    137 H137       33.2899   -2.4575   -3.9185 H         1 UNK         0.0624 
@<TRIPOS>BOND
     1    1    2 1    
     2    1   72 1    
     3    1   73 1    
     4    1   74 1    
     5    2    3 2    
     6    2    4 am   BACKBONE|DICT|INTERRES
     7    4    5 1    
     8    4   75 1    
     9    5    6 1    
    10    5   35 1    
    11    5   76 1    
    12    6    7 1    
    13    6   77 1    
    14    6   78 1    
    15    7    8 1    
    16    8    9 1    
    17    8   79 1    
    18    8   80 1    
    19    9   10 ar   
    20    9   14 ar   
    21   10   11 ar   
    22   10   81 1    
    23   11   12 ar   
    24   11   71 1    
    25   12   13 ar   
    26   12   82 1    
    27   13   14 ar   
    28   13   15 1    
    29   14   83 1    
    30   15   16 1    
    31   15   84 1    
    32   15   85 1    
    33   16   17 1    
    34   17   18 1    
    35   17   86 1    
    36   17   87 1    
    37   18   19 1    
    38   18   37 1    
    39   18   88 1    
    40   19   20 am   BACKBONE|DICT|INTERRES
    41   19   89 1    
    42   20   21 2    
    43   20   22 1    
    44   22   23 1    
    45   22   24 1    
    46   22   90 1    
    47   23   91 1    
    48   23   92 1    
    49   23   93 1    
    50   24   25 am   BACKBONE|DICT|INTERRES
    51   24   94 1    
    52   25   26 2    
    53   25   27 1    
    54   27   28 1    
    55   27   29 1    
    56   27   95 1    
    57   28   96 1    
    58   28   97 1    
    59   28   98 1    
    60   29   30 am   BACKBONE|DICT|INTERRES
    61   29   99 1    
    62   30   31 2    
    63   30   32 1    
    64   32   33 1    
    65   32   34 1    
    66   32  100 1    
    67   33  101 1    
    68   33  102 1    
    69   33  103 1    
    70   34   35 am   BACKBONE|DICT|INTERRES
    71   34  104 1    
    72   35   36 2    
    73   37   38 2    
    74   37   39 am   BACKBONE|DICT|INTERRES
    75   39   40 1    
    76   39  105 1    
    77   40   41 1    
    78   40   42 1    
    79   40  106 1    
    80   41  107 1    
    81   41  108 1    
    82   41  109 1    
    83   42   43 2    
    84   42   44 am   BACKBONE|DICT|INTERRES
    85   44   45 1    
    86   44  110 1    
    87   45   46 1    
    88   45   47 1    
    89   45  111 1    
    90   46  112 1    
    91   46  113 1    
    92   46  114 1    
    93   47   48 2    
    94   47   49 am   BACKBONE|DICT|INTERRES
    95   49   50 1    
    96   49  115 1    
    97   50   51 1    
    98   50   52 1    
    99   50  116 1    
   100   51  117 1    
   101   51  118 1    
   102   51  119 1    
   103   52   53 2    
   104   52   54 am   BACKBONE|DICT|INTERRES
   105   54   55 1    
   106   54  120 1    
   107   55   56 1    
   108   55   57 1    
   109   55  121 1    
   110   56  122 1    
   111   56  123 1    
   112   56  124 1    
   113   57   58 2    
   114   57   59 am   BACKBONE|DICT|INTERRES
   115   59   60 1    
   116   59  125 1    
   117   60   61 1    
   118   60   62 1    
   119   60  126 1    
   120   61  127 1    
   121   61  128 1    
   122   61  129 1    
   123   62   63 2    
   124   62   64 am   BACKBONE|DICT|INTERRES
   125   64   65 1    
   126   64  130 1    
   127   65   66 1    
   128   65   69 1    
   129   65  131 1    
   130   66   67 am   BACKBONE|DICT|INTERRES
   131   66   68 2    
   132   67  132 1    
   133   67  133 1    
   134   69   70 1    
   135   69  134 1    
   136   69  135 1    
   137   70   71 1    
   138   71  136 1    
   139   71  137 1    
@<TRIPOS>SUBSTRUCTURE
     1 UNK         1 GROUP             0       ****    0 ROOT    
