@<TRIPOS>MOLECULE
3R137
137   139    1
SMALL
USER_CHARGES


@<TRIPOS>ATOM
      1 CA         23.4957   -5.4930   -4.1449 C.3       0 UNK        -0.2020 
      2 C          23.9260   -4.8918   -2.8160 C.2       0 UNK         0.4855 
      3 O          23.2029   -4.0707   -2.2510 O.2       0 UNK        -0.5197 
      4 N          25.1055   -5.2798   -2.3126 N.am      1 UNK        -0.4892 
      5 CA         25.6976   -4.7579   -1.0747 C.3       1 UNK         0.0835 
      6 C6         26.8456   -5.6890   -0.5571 C.3       12 UNK        -0.0855 
      7 S7         28.5153   -4.9895   -0.3130 S.3       12 UNK        -0.2931 
      8 C8         29.2208   -5.1833   -1.9908 C.3       12 UNK         0.0378 
      9 C9         30.1666   -4.0669   -2.4433 C.ar      12 UNK        -0.0802 
     10 C10        30.7498   -4.1578   -3.7122 C.ar      12 UNK        -0.0944 
     11 C11        31.6124   -3.1608   -4.1815 C.ar      12 UNK        -0.0787 
     12 C12        31.9001   -2.0622   -3.3666 C.ar      12 UNK        -0.0862 
     13 C13        31.2996   -1.9382   -2.1123 C.ar      12 UNK        -0.0733 
     14 C14        30.4504   -2.9464   -1.6522 C.ar      12 UNK        -0.0832 
     15 C15        31.5299   -0.6983   -1.2602 C.3       12 UNK         0.0240 
     16 S16        30.7045    0.7798   -1.9420 S.3       12 UNK        -0.2522 
     17 C17        29.0222    0.1833   -2.3428 C.3       12 UNK        -0.0967 
     18 CA         28.8370    0.0044   -3.8740 C.3       5 UNK         0.0660 
     19 N          27.8851   -1.0673   -4.2050 N.am      5 UNK        -0.4015 
     20 C          27.5804   -1.4576   -5.4542 C.2       4 UNK         0.4946 
     21 O          28.0980   -0.9862   -6.4623 O.2       4 UNK        -0.5353 
     22 CA         26.4473   -2.4786   -5.6221 C.3       4 UNK         0.0277 
     23 CB         26.9416   -3.9134   -5.3805 C.3       4 UNK        -0.1981 
     24 N          25.3292   -2.1510   -4.7367 N.am      4 UNK        -0.4209 
     25 C          24.4419   -1.1763   -4.9936 C.2       3 UNK         0.4942 
     26 O          24.3877   -0.5689   -6.0626 O.2       3 UNK        -0.5208 
     27 CA         23.4673   -0.7807   -3.8697 C.3       3 UNK         0.0250 
     28 CB         22.0963   -1.4437   -4.0766 C.3       3 UNK        -0.1990 
     29 N          23.9797   -1.0892   -2.5310 N.am      3 UNK        -0.4232 
     30 C          24.9777   -0.4105   -1.9423 C.2       2 UNK         0.4993 
     31 O          25.5333    0.5595   -2.4575 O.2       2 UNK        -0.5286 
     32 CA         25.4899   -0.9300   -0.5843 C.3       2 UNK         0.0209 
     33 CB         24.7243   -0.2638    0.5693 C.3       2 UNK        -0.1931 
     34 N          25.4203   -2.3895   -0.4422 N.am      2 UNK        -0.4546 
     35 C          26.0290   -3.2567   -1.2633 C.2       1 UNK         0.5154 
     36 O          26.7463   -2.8977   -2.2011 O.2       1 UNK        -0.5181 
     37 C          28.4834    1.3478   -4.5526 C.2       5 UNK         0.5014 
     38 O          29.3747    2.0407   -5.0457 O.2       5 UNK        -0.5248 
     39 N          27.1818    1.6683   -4.5949 N.am      6 UNK        -0.4434 
     40 CA         26.6170    2.8353   -5.2742 C.3       6 UNK         0.0363 
     41 CB         25.1328    2.9639   -4.8960 C.3       6 UNK        -0.1936 
     42 C          26.7783    2.8298   -6.8077 C.2       6 UNK         0.5081 
     43 O          26.6912    3.9004   -7.4121 O.2       6 UNK        -0.5248 
     44 N          27.0162    1.6634   -7.4278 N.am      7 UNK        -0.4718 
     45 CA         27.2685    1.5298   -8.8642 C.3       7 UNK         0.0273 
     46 CB         26.8860    0.1142   -9.3349 C.3       7 UNK        -0.1935 
     47 C          28.7328    1.8810   -9.1743 C.2       7 UNK         0.5018 
     48 O          29.5396    0.9966   -9.4709 O.2       7 UNK        -0.5186 
     49 N          29.0484    3.1812   -9.0979 N.am      8 UNK        -0.4240 
     50 CA         30.3836    3.7671   -9.2722 C.3       8 UNK         0.0235 
     51 CB         30.2937    5.2888   -9.0776 C.3       8 UNK        -0.2000 
     52 C          31.0765    3.4363  -10.6079 C.2       8 UNK         0.4941 
     53 O          32.3057    3.4462  -10.6633 O.2       8 UNK        -0.5273 
     54 N          30.2939    3.1078  -11.6449 N.am      9 UNK        -0.4262 
     55 CA         30.7823    2.6003  -12.9294 C.3       9 UNK         0.0264 
     56 CB         29.6166    2.5656  -13.9314 C.3       9 UNK        -0.1955 
     57 C          31.4516    1.2132  -12.8366 C.2       9 UNK         0.5031 
     58 O          32.2711    0.8946  -13.6998 O.2       9 UNK        -0.5390 
     59 N          31.0962    0.4197  -11.8158 N.am      10 UNK        -0.4204 
     60 CA         31.6466   -0.9098  -11.5545 C.3       10 UNK         0.0237 
     61 CB         30.4936   -1.9171  -11.3951 C.3       10 UNK        -0.1985 
     62 C          32.5361   -0.9003  -10.3037 C.2       10 UNK         0.4970 
     63 O          33.6769   -1.3587  -10.3750 O.2       10 UNK        -0.4914 
     64 N          31.9999   -0.3927   -9.1875 N.am      11 UNK        -0.4285 
     65 CA         32.6443   -0.3966   -7.8641 C.3       11 UNK         0.1007 
     66 C          33.4255    0.9040   -7.5225 C.2       11 UNK         0.5703 
     67 N          33.5068    1.8959   -8.3990 N.am      11 UNK        -0.7361 
     68 O          34.0036    1.0063   -6.4432 O.2       11 UNK        -0.4986 
     69 C69        31.6268   -0.7764   -6.7556 C.3       12 UNK        -0.0947 
     70 S70        31.1614   -2.5397   -6.8498 S.3       12 UNK        -0.2240 
     71 C71        32.2285   -3.2753   -5.5690 C.3       12 UNK         0.0194 
     72 H72        22.5102   -5.9477   -4.0485 H         1 UNK         0.0906 
     73 H73        23.4395   -4.7162   -4.9070 H         1 UNK         0.0906 
     74 H74        24.1895   -6.2590   -4.4902 H         1 UNK         0.0906 
     75 H75        25.6723   -5.9369   -2.8288 H         1 UNK         0.3140 
     76 H76        24.9042   -4.8096   -0.3249 H         1 UNK         0.1085 
     77 H77        26.5476   -6.0877    0.4141 H         1 UNK         0.0836 
     78 H78        26.9446   -6.5767   -1.1843 H         1 UNK         0.0836 
     79 H79        28.4061   -5.2458   -2.7117 H         1 UNK         0.0731 
     80 H80        29.7458   -6.1385   -2.0352 H         1 UNK         0.0731 
     81 H81        30.5260   -5.0071   -4.3435 H         1 UNK         0.1312 
     82 H82        32.5653   -1.2847   -3.7146 H         1 UNK         0.1406 
     83 H83        29.9955   -2.8301   -0.6798 H         1 UNK         0.1631 
     84 H84        32.6004   -0.5034   -1.1836 H         1 UNK         0.0717 
     85 H85        31.1757   -0.8579   -0.2405 H         1 UNK         0.0717 
     86 H86        28.8399   -0.7540   -1.8178 H         1 UNK         0.0934 
     87 H87        28.2913    0.8810   -1.9286 H         1 UNK         0.0934 
     88 H88        29.7859   -0.3241   -4.3029 H         1 UNK         0.0739 
     89 H89        27.4487   -1.5554   -3.4283 H         1 UNK         0.3093 
     90 H90        26.1003   -2.4227   -6.6566 H         1 UNK         0.0818 
     91 H91        27.3454   -4.0448   -4.3792 H         1 UNK         0.0819 
     92 H92        26.1421   -4.6396   -5.5227 H         1 UNK         0.0819 
     93 H93        27.7388   -4.1665   -6.0809 H         1 UNK         0.0819 
     94 H94        25.3547   -2.5571   -3.8101 H         1 UNK         0.3041 
     95 H95        23.3240    0.3004   -3.9302 H         1 UNK         0.0784 
     96 H96        21.6580   -1.1354   -5.0268 H         1 UNK         0.0793 
     97 H97        22.1655   -2.5309   -4.0933 H         1 UNK         0.0793 
     98 H98        21.3948   -1.1627   -3.2909 H         1 UNK         0.0793 
     99 H99        23.6021   -1.9130   -2.0759 H         1 UNK         0.3024 
    100 H100       26.5409   -0.6436   -0.5073 H         1 UNK         0.1171 
    101 H101       25.1413   -0.5435    1.5369 H         1 UNK         0.0786 
    102 H102       24.7802    0.8236    0.4973 H         1 UNK         0.0786 
    103 H103       23.6683   -0.5368    0.5654 H         1 UNK         0.0786 
    104 H104       24.8209   -2.7447    0.2893 H         1 UNK         0.2977 
    105 H105       26.5291    1.0868   -4.0762 H         1 UNK         0.3127 
    106 H106       27.1417    3.7166   -4.8997 H         1 UNK         0.0770 
    107 H107       24.5541    2.1099   -5.2489 H         1 UNK         0.0814 
    108 H108       24.6932    3.8596   -5.3370 H         1 UNK         0.0814 
    109 H109       25.0009    3.0367   -3.8162 H         1 UNK         0.0814 
    110 H110       27.1623    0.8262   -6.8727 H         1 UNK         0.2983 
    111 H111       26.6321    2.2331   -9.4061 H         1 UNK         0.0947 
    112 H112       26.9622    0.0352  -10.4199 H         1 UNK         0.0806 
    113 H113       25.8603   -0.1329   -9.0604 H         1 UNK         0.0806 
    114 H114       27.5378   -0.6510   -8.9142 H         1 UNK         0.0806 
    115 H115       28.3154    3.8098   -8.7873 H         1 UNK         0.3000 
    116 H116       31.0119    3.3591   -8.4781 H         1 UNK         0.0850 
    117 H117       31.2768    5.7535   -9.1676 H         1 UNK         0.0810 
    118 H118       29.9084    5.5406   -8.0892 H         1 UNK         0.0810 
    119 H119       29.6439    5.7528   -9.8206 H         1 UNK         0.0810 
    120 H120       29.2932    3.1412  -11.5163 H         1 UNK         0.3040 
    121 H121       31.5336    3.3002  -13.3017 H         1 UNK         0.0766 
    122 H122       29.1830    3.5559  -14.0721 H         1 UNK         0.0812 
    123 H123       28.8226    1.8925  -13.6050 H         1 UNK         0.0812 
    124 H124       29.9538    2.2203  -14.9098 H         1 UNK         0.0812 
    125 H125       30.4401    0.7729  -11.1237 H         1 UNK         0.3205 
    126 H126       32.2625   -1.2404  -12.3936 H         1 UNK         0.0754 
    127 H127       30.8747   -2.9161  -11.1785 H         1 UNK         0.0769 
    128 H128       29.9029   -1.9864  -12.3086 H         1 UNK         0.0769 
    129 H129       29.8189   -1.6420  -10.5828 H         1 UNK         0.0769 
    130 H130       31.0601   -0.0043   -9.2172 H         1 UNK         0.2981 
    131 H131       33.4153   -1.1694   -7.8596 H         1 UNK         0.0541 
    132 H132       34.0347    2.7177   -8.1536 H         1 UNK         0.3459 
    133 H133       33.0554    1.8493   -9.3006 H         1 UNK         0.3459 
    134 H134       32.0221   -0.5710   -5.7623 H         1 UNK         0.0612 
    135 H135       30.7231   -0.1703   -6.8436 H         1 UNK         0.0612 
    136 H136       33.2135   -2.8066   -5.5934 H         1 UNK         0.0624 
    137 H137       32.3878   -4.3266   -5.8128 H         1 UNK         0.0624 
@<TRIPOS>BOND
     1    1    2 1    
     2    1   72 1    
     3    1   73 1    
     4    1   74 1    
     5    2    3 2    
     6    2    4 am   BACKBONE|DICT|INTERRES
     7    4    5 1    
     8    4   75 1    
     9    5    6 1    
    10    5   35 1    
    11    5   76 1    
    12    6    7 1    
    13    6   77 1    
    14    6   78 1    
    15    7    8 1    
    16    8    9 1    
    17    8   79 1    
    18    8   80 1    
    19    9   10 ar   
    20    9   14 ar   
    21   10   11 ar   
    22   10   81 1    
    23   11   12 ar   
    24   11   71 1    
    25   12   13 ar   
    26   12   82 1    
    27   13   14 ar   
    28   13   15 1    
    29   14   83 1    
    30   15   16 1    
    31   15   84 1    
    32   15   85 1    
    33   16   17 1    
    34   17   18 1    
    35   17   86 1    
    36   17   87 1    
    37   18   19 1    
    38   18   37 1    
    39   18   88 1    
    40   19   20 am   BACKBONE|DICT|INTERRES
    41   19   89 1    
    42   20   21 2    
    43   20   22 1    
    44   22   23 1    
    45   22   24 1    
    46   22   90 1    
    47   23   91 1    
    48   23   92 1    
    49   23   93 1    
    50   24   25 am   BACKBONE|DICT|INTERRES
    51   24   94 1    
    52   25   26 2    
    53   25   27 1    
    54   27   28 1    
    55   27   29 1    
    56   27   95 1    
    57   28   96 1    
    58   28   97 1    
    59   28   98 1    
    60   29   30 am   BACKBONE|DICT|INTERRES
    61   29   99 1    
    62   30   31 2    
    63   30   32 1    
    64   32   33 1    
    65   32   34 1    
    66   32  100 1    
    67   33  101 1    
    68   33  102 1    
    69   33  103 1    
    70   34   35 am   BACKBONE|DICT|INTERRES
    71   34  104 1    
    72   35   36 2    
    73   37   38 2    
    74   37   39 am   BACKBONE|DICT|INTERRES
    75   39   40 1    
    76   39  105 1    
    77   40   41 1    
    78   40   42 1    
    79   40  106 1    
    80   41  107 1    
    81   41  108 1    
    82   41  109 1    
    83   42   43 2    
    84   42   44 am   BACKBONE|DICT|INTERRES
    85   44   45 1    
    86   44  110 1    
    87   45   46 1    
    88   45   47 1    
    89   45  111 1    
    90   46  112 1    
    91   46  113 1    
    92   46  114 1    
    93   47   48 2    
    94   47   49 am   BACKBONE|DICT|INTERRES
    95   49   50 1    
    96   49  115 1    
    97   50   51 1    
    98   50   52 1    
    99   50  116 1    
   100   51  117 1    
   101   51  118 1    
   102   51  119 1    
   103   52   53 2    
   104   52   54 am   BACKBONE|DICT|INTERRES
   105   54   55 1    
   106   54  120 1    
   107   55   56 1    
   108   55   57 1    
   109   55  121 1    
   110   56  122 1    
   111   56  123 1    
   112   56  124 1    
   113   57   58 2    
   114   57   59 am   BACKBONE|DICT|INTERRES
   115   59   60 1    
   116   59  125 1    
   117   60   61 1    
   118   60   62 1    
   119   60  126 1    
   120   61  127 1    
   121   61  128 1    
   122   61  129 1    
   123   62   63 2    
   124   62   64 am   BACKBONE|DICT|INTERRES
   125   64   65 1    
   126   64  130 1    
   127   65   66 1    
   128   65   69 1    
   129   65  131 1    
   130   66   67 am   BACKBONE|DICT|INTERRES
   131   66   68 2    
   132   67  132 1    
   133   67  133 1    
   134   69   70 1    
   135   69  134 1    
   136   69  135 1    
   137   70   71 1    
   138   71  136 1    
   139   71  137 1    
@<TRIPOS>SUBSTRUCTURE
     1 UNK         1 GROUP             0       ****    0 ROOT    
