@<TRIPOS>MOLECULE
3R137
137   139    1
SMALL
USER_CHARGES


@<TRIPOS>ATOM
      1 CA         30.7789   -6.2267   -7.2136 C.3       0 UNK        -0.2020 
      2 C          29.7627   -6.5829   -6.1387 C.2       0 UNK         0.4855 
      3 O          28.9244   -7.4578   -6.3537 O.2       0 UNK        -0.5197 
      4 N          29.8319   -5.9147   -4.9804 N.am      1 UNK        -0.4892 
      5 CA         28.9655   -6.1452   -3.8145 C.3       1 UNK         0.0835 
      6 C6         29.6246   -5.6712   -2.4912 C.3       12 UNK        -0.0855 
      7 S7         30.4293   -4.0365   -2.5916 S.3       12 UNK        -0.2931 
      8 C8         29.1298   -2.9447   -1.9213 C.3       12 UNK         0.0378 
      9 C9         29.4446   -1.4471   -1.9597 C.ar      12 UNK        -0.0802 
     10 C10        30.5758   -0.9168   -2.5967 C.ar      12 UNK        -0.0944 
     11 C11        30.8053    0.4606   -2.6228 C.ar      12 UNK        -0.0787 
     12 C12        29.8957    1.3229   -2.0058 C.ar      12 UNK        -0.0862 
     13 C13        28.7549    0.8123   -1.3778 C.ar      12 UNK        -0.0733 
     14 C14        28.5416   -0.5691   -1.3530 C.ar      12 UNK        -0.0832 
     15 C15        27.7320    1.7490   -0.7512 C.3       12 UNK         0.0240 
     16 S16        26.2277    1.8809   -1.7732 S.3       12 UNK        -0.2522 
     17 C17        26.8895    2.6257   -3.3013 C.3       12 UNK        -0.0967 
     18 CA         27.1311    1.5636   -4.4150 C.3       5 UNK         0.0660 
     19 N          25.9060    0.8798   -4.8440 N.am      5 UNK        -0.4015 
     20 C          24.8855    1.4289   -5.5229 C.2       4 UNK         0.4946 
     21 O          24.8617    2.6055   -5.8896 O.2       4 UNK        -0.5353 
     22 CA         23.6842    0.5261   -5.8711 C.3       4 UNK         0.0277 
     23 CB         23.6900    0.1790   -7.3694 C.3       4 UNK        -0.1981 
     24 N          23.6375   -0.7195   -5.1041 N.am      4 UNK        -0.4209 
     25 C          23.3742   -0.8232   -3.7937 C.2       3 UNK         0.4942 
     26 O          23.0342    0.1280   -3.0901 O.2       3 UNK        -0.5208 
     27 CA         23.5196   -2.2199   -3.1543 C.3       3 UNK         0.0250 
     28 CB         22.1451   -2.7676   -2.7340 C.3       3 UNK        -0.1990 
     29 N          24.1876   -3.2132   -4.0072 N.am      3 UNK        -0.4232 
     30 C          25.4738   -3.1698   -4.3812 C.2       2 UNK         0.4993 
     31 O          26.2460   -2.2615   -4.0691 O.2       2 UNK        -0.5286 
     32 CA         25.9398   -4.2755   -5.3411 C.3       2 UNK         0.0209 
     33 CB         25.9406   -3.7632   -6.7919 C.3       2 UNK        -0.1931 
     34 N          27.2724   -4.7771   -4.9998 N.am      2 UNK        -0.4546 
     35 C          27.5244   -5.6091   -3.9795 C.2       1 UNK         0.5154 
     36 O          26.6547   -5.9912   -3.1940 O.2       1 UNK        -0.5181 
     37 C          27.9164    2.0867   -5.6370 C.2       5 UNK         0.5014 
     38 O          28.1050    1.3249   -6.5838 O.2       5 UNK        -0.5248 
     39 N          28.3445    3.3586   -5.6202 N.am      6 UNK        -0.4434 
     40 CA         29.2134    3.9965   -6.6189 C.3       6 UNK         0.0363 
     41 CB         29.5582    5.4168   -6.1422 C.3       6 UNK        -0.1936 
     42 C          28.6859    4.0232   -8.0690 C.2       6 UNK         0.5081 
     43 O          29.4579    4.3294   -8.9790 O.2       6 UNK        -0.5248 
     44 N          27.4040    3.6971   -8.2776 N.am      7 UNK        -0.4718 
     45 CA         26.8180    3.4720   -9.5998 C.3       7 UNK         0.0273 
     46 CB         25.2882    3.5570   -9.4859 C.3       7 UNK        -0.1935 
     47 C          27.2444    2.1329  -10.2385 C.2       7 UNK         0.5018 
     48 O          27.1019    1.9882  -11.4537 O.2       7 UNK        -0.5186 
     49 N          27.7438    1.1825   -9.4360 N.am      8 UNK        -0.4240 
     50 CA         28.1992   -0.1384   -9.8635 C.3       8 UNK         0.0235 
     51 CB         26.9879   -1.0776  -10.0694 C.3       8 UNK        -0.2000 
     52 C          29.2303   -0.6393   -8.8394 C.2       8 UNK         0.4941 
     53 O          30.2073    0.0674   -8.5838 O.2       8 UNK        -0.5273 
     54 N          29.0116   -1.8439   -8.2874 N.am      9 UNK        -0.4262 
     55 CA         29.6695   -2.4479   -7.1146 C.3       9 UNK         0.0264 
     56 CB         29.2081   -1.7230   -5.8353 C.3       9 UNK        -0.1955 
     57 C          31.2089   -2.5528   -7.1614 C.2       9 UNK         0.5031 
     58 O          31.8236   -2.7840   -6.1198 O.2       9 UNK        -0.5390 
     59 N          31.7982   -2.3926   -8.3546 N.am      10 UNK        -0.4204 
     60 CA         33.2330   -2.2480   -8.6258 C.3       10 UNK         0.0237 
     61 CB         34.0057   -3.5375   -8.2700 C.3       10 UNK        -0.1985 
     62 C          33.8495   -0.9762   -7.9984 C.2       10 UNK         0.4970 
     63 O          35.0493   -0.9652   -7.7154 O.2       10 UNK        -0.4914 
     64 N          33.0399    0.0770   -7.8206 N.am      11 UNK        -0.4285 
     65 CA         33.4621    1.3894   -7.3034 C.3       11 UNK         0.1007 
     66 C          32.7791    2.5994   -7.9999 C.2       11 UNK         0.5703 
     67 N          31.7208    2.4167   -8.7784 N.am      11 UNK        -0.7361 
     68 O          33.2342    3.7301   -7.8435 O.2       11 UNK        -0.4986 
     69 C69        33.3817    1.4727   -5.7541 C.3       12 UNK        -0.0947 
     70 S70        31.6922    1.2567   -5.1003 S.3       12 UNK        -0.2240 
     71 C71        32.0333    1.0047   -3.3349 C.3       12 UNK         0.0194 
     72 H72        31.5615   -5.5710   -6.8322 H         1 UNK         0.0906 
     73 H73        31.2568   -7.1305   -7.5909 H         1 UNK         0.0906 
     74 H74        30.2881   -5.7288   -8.0492 H         1 UNK         0.0906 
     75 H75        30.5378   -5.2011   -4.8459 H         1 UNK         0.3140 
     76 H76        28.8424   -7.2273   -3.7241 H         1 UNK         0.1085 
     77 H77        28.9192   -5.6920   -1.6578 H         1 UNK         0.0836 
     78 H78        30.4041   -6.3840   -2.2175 H         1 UNK         0.0836 
     79 H79        28.9304   -3.2393   -0.8899 H         1 UNK         0.0731 
     80 H80        28.2090   -3.1141   -2.4792 H         1 UNK         0.0731 
     81 H81        31.2831   -1.5620   -3.0977 H         1 UNK         0.1312 
     82 H82        30.0669    2.3902   -2.0340 H         1 UNK         0.1406 
     83 H83        27.6518   -0.9597   -0.8774 H         1 UNK         0.1631 
     84 H84        28.1554    2.7426   -0.5960 H         1 UNK         0.0717 
     85 H85        27.4569    1.3770    0.2368 H         1 UNK         0.0717 
     86 H86        26.1875    3.3902   -3.6388 H         1 UNK         0.0934 
     87 H87        27.8106    3.1498   -3.0434 H         1 UNK         0.0934 
     88 H88        27.7650    0.7796   -3.9990 H         1 UNK         0.0739 
     89 H89        25.8611   -0.1046   -4.6103 H         1 UNK         0.3093 
     90 H90        22.7763    1.0915   -5.6503 H         1 UNK         0.0818 
     91 H91        23.6058    1.0798   -7.9767 H         1 UNK         0.0819 
     92 H92        24.6088   -0.3298   -7.6632 H         1 UNK         0.0819 
     93 H93        22.8488   -0.4616   -7.6349 H         1 UNK         0.0819 
     94 H94        23.8892   -1.5624   -5.5973 H         1 UNK         0.3041 
     95 H95        24.1272   -2.0934   -2.2555 H         1 UNK         0.0784 
     96 H96        21.6350   -2.0736   -2.0644 H         1 UNK         0.0793 
     97 H97        21.4938   -2.9277   -3.5942 H         1 UNK         0.0793 
     98 H98        22.2400   -3.7143   -2.2016 H         1 UNK         0.0793 
     99 H99        23.6145   -3.9831   -4.3230 H         1 UNK         0.3024 
    100 H100       25.2424   -5.1145   -5.2788 H         1 UNK         0.1171 
    101 H101       24.9345   -3.4837   -7.1071 H         1 UNK         0.0786 
    102 H102       26.5711   -2.8836   -6.9139 H         1 UNK         0.0786 
    103 H103       26.2916   -4.5289   -7.4841 H         1 UNK         0.0786 
    104 H104       28.0444   -4.4815   -5.5753 H         1 UNK         0.2977 
    105 H105       28.1004    3.9306   -4.8260 H         1 UNK         0.3127 
    106 H106       30.1375    3.4171   -6.6411 H         1 UNK         0.0770 
    107 H107       28.6688    6.0436   -6.0670 H         1 UNK         0.0814 
    108 H108       30.2441    5.9058   -6.8357 H         1 UNK         0.0814 
    109 H109       30.0473    5.4024   -5.1681 H         1 UNK         0.0814 
    110 H110       26.8373    3.4477   -7.4777 H         1 UNK         0.2983 
    111 H111       27.1533    4.2681  -10.2684 H         1 UNK         0.0947 
    112 H112       24.8112    3.3887  -10.4525 H         1 UNK         0.0806 
    113 H113       24.9708    4.5390   -9.1348 H         1 UNK         0.0806 
    114 H114       24.8979    2.8127   -8.7929 H         1 UNK         0.0806 
    115 H115       27.8841    1.3822   -8.4451 H         1 UNK         0.3000 
    116 H116       28.7295   -0.0374  -10.8127 H         1 UNK         0.0850 
    117 H117       27.2987   -2.0599  -10.4275 H         1 UNK         0.0810 
    118 H118       26.3041   -0.6773  -10.8182 H         1 UNK         0.0810 
    119 H119       26.4178   -1.2145   -9.1498 H         1 UNK         0.0810 
    120 H120       28.2146   -2.3557   -8.6378 H         1 UNK         0.3040 
    121 H121       29.3020   -3.4727   -7.0657 H         1 UNK         0.0766 
    122 H122       29.6746   -0.7427   -5.7462 H         1 UNK         0.0812 
    123 H123       29.4705   -2.2900   -4.9426 H         1 UNK         0.0812 
    124 H124       28.1310   -1.5687   -5.8151 H         1 UNK         0.0812 
    125 H125       31.1879   -2.1959   -9.1355 H         1 UNK         0.3205 
    126 H126       33.3167   -2.1098   -9.7046 H         1 UNK         0.0754 
    127 H127       35.0330   -3.4903   -8.6329 H         1 UNK         0.0769 
    128 H128       33.5439   -4.4150   -8.7225 H         1 UNK         0.0769 
    129 H129       34.0515   -3.7000   -7.1928 H         1 UNK         0.0769 
    130 H130       32.0543   -0.0056   -8.0528 H         1 UNK         0.2981 
    131 H131       34.5145    1.5132   -7.5656 H         1 UNK         0.0541 
    132 H132       31.2629    3.2263   -9.1748 H         1 UNK         0.3459 
    133 H133       31.2508    1.5170   -8.8240 H         1 UNK         0.3459 
    134 H134       33.7745    2.4264   -5.3974 H         1 UNK         0.0612 
    135 H135       34.0221    0.7037   -5.3197 H         1 UNK         0.0612 
    136 H136       32.8643    0.3074   -3.2178 H         1 UNK         0.0624 
    137 H137       32.3515    1.9481   -2.8890 H         1 UNK         0.0624 
@<TRIPOS>BOND
     1    1    2 1    
     2    1   72 1    
     3    1   73 1    
     4    1   74 1    
     5    2    3 2    
     6    2    4 am   BACKBONE|DICT|INTERRES
     7    4    5 1    
     8    4   75 1    
     9    5    6 1    
    10    5   35 1    
    11    5   76 1    
    12    6    7 1    
    13    6   77 1    
    14    6   78 1    
    15    7    8 1    
    16    8    9 1    
    17    8   79 1    
    18    8   80 1    
    19    9   10 ar   
    20    9   14 ar   
    21   10   11 ar   
    22   10   81 1    
    23   11   12 ar   
    24   11   71 1    
    25   12   13 ar   
    26   12   82 1    
    27   13   14 ar   
    28   13   15 1    
    29   14   83 1    
    30   15   16 1    
    31   15   84 1    
    32   15   85 1    
    33   16   17 1    
    34   17   18 1    
    35   17   86 1    
    36   17   87 1    
    37   18   19 1    
    38   18   37 1    
    39   18   88 1    
    40   19   20 am   BACKBONE|DICT|INTERRES
    41   19   89 1    
    42   20   21 2    
    43   20   22 1    
    44   22   23 1    
    45   22   24 1    
    46   22   90 1    
    47   23   91 1    
    48   23   92 1    
    49   23   93 1    
    50   24   25 am   BACKBONE|DICT|INTERRES
    51   24   94 1    
    52   25   26 2    
    53   25   27 1    
    54   27   28 1    
    55   27   29 1    
    56   27   95 1    
    57   28   96 1    
    58   28   97 1    
    59   28   98 1    
    60   29   30 am   BACKBONE|DICT|INTERRES
    61   29   99 1    
    62   30   31 2    
    63   30   32 1    
    64   32   33 1    
    65   32   34 1    
    66   32  100 1    
    67   33  101 1    
    68   33  102 1    
    69   33  103 1    
    70   34   35 am   BACKBONE|DICT|INTERRES
    71   34  104 1    
    72   35   36 2    
    73   37   38 2    
    74   37   39 am   BACKBONE|DICT|INTERRES
    75   39   40 1    
    76   39  105 1    
    77   40   41 1    
    78   40   42 1    
    79   40  106 1    
    80   41  107 1    
    81   41  108 1    
    82   41  109 1    
    83   42   43 2    
    84   42   44 am   BACKBONE|DICT|INTERRES
    85   44   45 1    
    86   44  110 1    
    87   45   46 1    
    88   45   47 1    
    89   45  111 1    
    90   46  112 1    
    91   46  113 1    
    92   46  114 1    
    93   47   48 2    
    94   47   49 am   BACKBONE|DICT|INTERRES
    95   49   50 1    
    96   49  115 1    
    97   50   51 1    
    98   50   52 1    
    99   50  116 1    
   100   51  117 1    
   101   51  118 1    
   102   51  119 1    
   103   52   53 2    
   104   52   54 am   BACKBONE|DICT|INTERRES
   105   54   55 1    
   106   54  120 1    
   107   55   56 1    
   108   55   57 1    
   109   55  121 1    
   110   56  122 1    
   111   56  123 1    
   112   56  124 1    
   113   57   58 2    
   114   57   59 am   BACKBONE|DICT|INTERRES
   115   59   60 1    
   116   59  125 1    
   117   60   61 1    
   118   60   62 1    
   119   60  126 1    
   120   61  127 1    
   121   61  128 1    
   122   61  129 1    
   123   62   63 2    
   124   62   64 am   BACKBONE|DICT|INTERRES
   125   64   65 1    
   126   64  130 1    
   127   65   66 1    
   128   65   69 1    
   129   65  131 1    
   130   66   67 am   BACKBONE|DICT|INTERRES
   131   66   68 2    
   132   67  132 1    
   133   67  133 1    
   134   69   70 1    
   135   69  134 1    
   136   69  135 1    
   137   70   71 1    
   138   71  136 1    
   139   71  137 1    
@<TRIPOS>SUBSTRUCTURE
     1 UNK         1 GROUP             0       ****    0 ROOT    
