@<TRIPOS>MOLECULE
3R137
137   139    1
SMALL
USER_CHARGES


@<TRIPOS>ATOM
      1 CA         29.3443   -6.0307   -5.7096 C.3       0 UNK        -0.2020 
      2 C          28.4018   -6.0661   -4.5151 C.2       0 UNK         0.4855 
      3 O          27.8044   -7.1056   -4.2354 O.2       0 UNK        -0.5197 
      4 N          28.2597   -4.9397   -3.8108 N.am      1 UNK        -0.4892 
      5 CA         27.3693   -4.7488   -2.6675 C.3       1 UNK         0.0835 
      6 C6         27.9082   -5.4536   -1.3734 C.3       12 UNK        -0.0855 
      7 S7         28.2099   -4.4756    0.1460 S.3       12 UNK        -0.2931 
      8 C8         30.0213   -4.2890    0.1225 C.3       12 UNK         0.0378 
      9 C9         30.4552   -3.2437   -0.8922 C.ar      12 UNK        -0.0802 
     10 C10        30.9238   -3.6271   -2.1517 C.ar      12 UNK        -0.0944 
     11 C11        31.2974   -2.6606   -3.0894 C.ar      12 UNK        -0.0787 
     12 C12        31.2166   -1.3060   -2.7521 C.ar      12 UNK        -0.0862 
     13 C13        30.7498   -0.9074   -1.4943 C.ar      12 UNK        -0.0733 
     14 C14        30.3752   -1.8861   -0.5691 C.ar      12 UNK        -0.0832 
     15 C15        30.6367    0.5672   -1.1061 C.3       12 UNK         0.0240 
     16 S16        30.1555    1.6919   -2.4642 S.3       12 UNK        -0.2522 
     17 C17        28.5869    0.9601   -3.0380 C.3       12 UNK        -0.0967 
     18 CA         28.4346    1.0703   -4.5795 C.3       5 UNK         0.0660 
     19 N          27.8176   -0.1237   -5.1614 N.am      5 UNK        -0.4015 
     20 C          27.6732   -0.3586   -6.4736 C.2       4 UNK         0.4946 
     21 O          28.1382    0.3587   -7.3607 O.2       4 UNK        -0.5353 
     22 CA         26.8556   -1.5960   -6.8684 C.3       4 UNK         0.0277 
     23 CB         27.7526   -2.8428   -6.9001 C.3       4 UNK        -0.1981 
     24 N          25.7168   -1.8120   -5.9715 N.am      4 UNK        -0.4209 
     25 C          24.6588   -0.9902   -5.8902 C.2       3 UNK         0.4942 
     26 O          24.5051    0.0013   -6.6019 O.2       3 UNK        -0.5208 
     27 CA         23.6246   -1.2948   -4.7948 C.3       3 UNK         0.0250 
     28 CB         22.6601   -2.4025   -5.2475 C.3       3 UNK        -0.1990 
     29 N          24.2456   -1.6672   -3.5213 N.am      3 UNK        -0.4232 
     30 C          25.0150   -0.8532   -2.7834 C.2       2 UNK         0.4993 
     31 O          25.2570    0.3171   -3.0779 O.2       2 UNK        -0.5286 
     32 CA         25.6692   -1.4667   -1.5348 C.3       2 UNK         0.0209 
     33 CB         24.7236   -1.3795   -0.3269 C.3       2 UNK        -0.1931 
     34 N          26.0983   -2.8570   -1.7273 N.am      2 UNK        -0.4546 
     35 C          27.0413   -3.2412   -2.5989 C.2       1 UNK         0.5154 
     36 O          27.6003   -2.4563   -3.3742 O.2       1 UNK        -0.5181 
     37 C          27.6723    2.3501   -4.9781 C.2       5 UNK         0.5014 
     38 O          28.2852    3.2954   -5.4753 O.2       5 UNK        -0.5248 
     39 N          26.3445    2.3377   -4.7831 N.am      6 UNK        -0.4434 
     40 CA         25.4301    3.4280   -5.1320 C.3       6 UNK         0.0363 
     41 CB         24.0277    3.1138   -4.5872 C.3       6 UNK        -0.1936 
     42 C          25.3733    3.7159   -6.6418 C.2       6 UNK         0.5081 
     43 O          25.3510    4.8832   -7.0333 O.2       6 UNK        -0.5248 
     44 N          25.3680    2.6561   -7.4619 N.am      7 UNK        -0.4718 
     45 CA         25.3988    2.7405   -8.9252 C.3       7 UNK         0.0273 
     46 CB         24.9861    1.3806   -9.5124 C.3       7 UNK        -0.1935 
     47 C          26.7661    3.1619   -9.4938 C.2       7 UNK         0.5018 
     48 O          26.8192    3.5962  -10.6452 O.2       7 UNK        -0.5186 
     49 N          27.8354    2.9940   -8.7000 N.am      8 UNK        -0.4240 
     50 CA         29.2510    3.1339   -9.0617 C.3       8 UNK         0.0235 
     51 CB         29.6034    4.5994   -9.3922 C.3       8 UNK        -0.2000 
     52 C          29.6589    2.1425  -10.1693 C.2       8 UNK         0.4941 
     53 O          30.3835    2.5042  -11.1000 O.2       8 UNK        -0.5273 
     54 N          29.1694    0.9006  -10.0543 N.am      9 UNK        -0.4262 
     55 CA         29.4096   -0.1974  -10.9901 C.3       9 UNK         0.0264 
     56 CB         28.2950   -1.2449  -10.8141 C.3       9 UNK        -0.1955 
     57 C          30.8122   -0.7864  -10.7679 C.2       9 UNK         0.5031 
     58 O          30.9396   -1.8302  -10.1223 O.2       9 UNK        -0.5390 
     59 N          31.8375   -0.0573  -11.2334 N.am      10 UNK        -0.4204 
     60 CA         33.2726   -0.2601  -10.9938 C.3       10 UNK         0.0237 
     61 CB         33.7764   -1.5965  -11.5834 C.3       10 UNK        -0.1985 
     62 C          33.6022   -0.0819   -9.5019 C.2       10 UNK         0.4970 
     63 O          33.9646    1.0215   -9.0927 O.2       10 UNK        -0.4914 
     64 N          33.4139   -1.1485   -8.7168 N.am      11 UNK        -0.4285 
     65 CA         33.3092   -1.0943   -7.2530 C.3       11 UNK         0.1007 
     66 C          32.0223   -0.3428   -6.7973 C.2       11 UNK         0.5703 
     67 N          30.8954   -0.5520   -7.4666 N.am      11 UNK        -0.7361 
     68 O          32.0553    0.4431   -5.8552 O.2       11 UNK        -0.4986 
     69 C69        33.4042   -2.5271   -6.6606 C.3       12 UNK        -0.0947 
     70 S70        33.4557   -2.5835   -4.8371 S.3       12 UNK        -0.2240 
     71 C71        31.7360   -3.0688   -4.4860 C.3       12 UNK         0.0194 
     72 H72        28.8204   -6.3580   -6.6102 H         1 UNK         0.0906 
     73 H73        29.7360   -5.0295   -5.8932 H         1 UNK         0.0906 
     74 H74        30.1887   -6.7027   -5.5422 H         1 UNK         0.0906 
     75 H75        28.7225   -4.0806   -4.0842 H         1 UNK         0.3140 
     76 H76        26.4207   -5.2240   -2.9302 H         1 UNK         0.1085 
     77 H77        28.8189   -6.0141   -1.5958 H         1 UNK         0.0836 
     78 H78        27.1921   -6.2287   -1.0910 H         1 UNK         0.0836 
     79 H79        30.4960   -5.2511   -0.0779 H         1 UNK         0.0731 
     80 H80        30.3562   -3.9893    1.1170 H         1 UNK         0.0731 
     81 H81        30.9753   -4.6764   -2.4078 H         1 UNK         0.1312 
     82 H82        31.5051   -0.5622   -3.4818 H         1 UNK         0.1406 
     83 H83        30.0072   -1.5938    0.4053 H         1 UNK         0.1631 
     84 H84        31.5982    0.8948   -0.7092 H         1 UNK         0.0717 
     85 H85        29.9121    0.6891   -0.2994 H         1 UNK         0.0717 
     86 H86        28.5661   -0.0867   -2.7375 H         1 UNK         0.0934 
     87 H87        27.7579    1.4228   -2.4984 H         1 UNK         0.0934 
     88 H88        29.4282    1.1317   -5.0294 H         1 UNK         0.0739 
     89 H89        27.4782   -0.8216   -4.5071 H         1 UNK         0.3093 
     90 H90        26.4646   -1.4299   -7.8744 H         1 UNK         0.0818 
     91 H91        28.5687   -2.7183   -7.6133 H         1 UNK         0.0819 
     92 H92        27.1946   -3.7307   -7.1975 H         1 UNK         0.0819 
     93 H93        28.2051   -3.0351   -5.9288 H         1 UNK         0.0819 
     94 H94        25.7806   -2.5859   -5.3272 H         1 UNK         0.3041 
     95 H95        23.0443   -0.3846   -4.6281 H         1 UNK         0.0784 
     96 H96        22.1764   -2.1360   -6.1885 H         1 UNK         0.0793 
     97 H97        23.1736   -3.3522   -5.4027 H         1 UNK         0.0793 
     98 H98        21.8696   -2.5638   -4.5142 H         1 UNK         0.0793 
     99 H99        24.0979   -2.6111   -3.1951 H         1 UNK         0.3024 
    100 H100       26.5601   -0.8747   -1.3131 H         1 UNK         0.1171 
    101 H101       25.2133   -1.7239    0.5844 H         1 UNK         0.0786 
    102 H102       24.4074   -0.3499   -0.1532 H         1 UNK         0.0786 
    103 H103       23.8231   -1.9776   -0.4717 H         1 UNK         0.0786 
    104 H104       25.6986   -3.5484   -1.1084 H         1 UNK         0.2977 
    105 H105       25.9293    1.5300   -4.3206 H         1 UNK         0.3127 
    106 H106       25.7934    4.3314   -4.6377 H         1 UNK         0.0770 
    107 H107       23.6217    2.2001   -5.0231 H         1 UNK         0.0814 
    108 H108       23.3306    3.9220   -4.8118 H         1 UNK         0.0814 
    109 H109       24.0421    2.9882   -3.5043 H         1 UNK         0.0814 
    110 H110       25.3043    1.7238   -7.0600 H         1 UNK         0.2983 
    111 H111       24.6685    3.4883   -9.2420 H         1 UNK         0.0947 
    112 H112       24.9686    1.4120  -10.6027 H         1 UNK         0.0806 
    113 H113       23.9890    1.0909   -9.1805 H         1 UNK         0.0806 
    114 H114       25.6791    0.5908   -9.2194 H         1 UNK         0.0806 
    115 H115       27.6678    2.5985   -7.7825 H         1 UNK         0.3000 
    116 H116       29.8188    2.8483   -8.1744 H         1 UNK         0.0850 
    117 H117       30.6781    4.7180   -9.5350 H         1 UNK         0.0810 
    118 H118       29.3077    5.2684   -8.5840 H         1 UNK         0.0810 
    119 H119       29.1158    4.9393  -10.3062 H         1 UNK         0.0810 
    120 H120       28.6445    0.6776   -9.2123 H         1 UNK         0.3040 
    121 H121       29.3568    0.1829  -12.0125 H         1 UNK         0.0766 
    122 H122       27.3152   -0.8212  -11.0352 H         1 UNK         0.0812 
    123 H123       28.2664   -1.6386   -9.7980 H         1 UNK         0.0812 
    124 H124       28.4440   -2.0898  -11.4876 H         1 UNK         0.0812 
    125 H125       31.5917    0.8432  -11.6334 H         1 UNK         0.3205 
    126 H126       33.7877    0.5424  -11.5243 H         1 UNK         0.0754 
    127 H127       34.8446   -1.7223  -11.4017 H         1 UNK         0.0769 
    128 H128       33.6289   -1.6248  -12.6630 H         1 UNK         0.0769 
    129 H129       33.2706   -2.4653  -11.1622 H         1 UNK         0.0769 
    130 H130       33.0368   -1.9775   -9.1553 H         1 UNK         0.2981 
    131 H131       34.1639   -0.5246   -6.8829 H         1 UNK         0.0541 
    132 H132       30.8898   -1.1648   -8.2744 H         1 UNK         0.3459 
    133 H133       30.0495   -0.0620   -7.2060 H         1 UNK         0.3459 
    134 H134       32.5838   -3.1488   -7.0246 H         1 UNK         0.0612 
    135 H135       34.3172   -3.0059   -7.0180 H         1 UNK         0.0612 
    136 H136       31.6452   -4.1466   -4.6260 H         1 UNK         0.0624 
    137 H137       31.0585   -2.6040   -5.2035 H         1 UNK         0.0624 
@<TRIPOS>BOND
     1    1    2 1    
     2    1   72 1    
     3    1   73 1    
     4    1   74 1    
     5    2    3 2    
     6    2    4 am   BACKBONE|DICT|INTERRES
     7    4    5 1    
     8    4   75 1    
     9    5    6 1    
    10    5   35 1    
    11    5   76 1    
    12    6    7 1    
    13    6   77 1    
    14    6   78 1    
    15    7    8 1    
    16    8    9 1    
    17    8   79 1    
    18    8   80 1    
    19    9   10 ar   
    20    9   14 ar   
    21   10   11 ar   
    22   10   81 1    
    23   11   12 ar   
    24   11   71 1    
    25   12   13 ar   
    26   12   82 1    
    27   13   14 ar   
    28   13   15 1    
    29   14   83 1    
    30   15   16 1    
    31   15   84 1    
    32   15   85 1    
    33   16   17 1    
    34   17   18 1    
    35   17   86 1    
    36   17   87 1    
    37   18   19 1    
    38   18   37 1    
    39   18   88 1    
    40   19   20 am   BACKBONE|DICT|INTERRES
    41   19   89 1    
    42   20   21 2    
    43   20   22 1    
    44   22   23 1    
    45   22   24 1    
    46   22   90 1    
    47   23   91 1    
    48   23   92 1    
    49   23   93 1    
    50   24   25 am   BACKBONE|DICT|INTERRES
    51   24   94 1    
    52   25   26 2    
    53   25   27 1    
    54   27   28 1    
    55   27   29 1    
    56   27   95 1    
    57   28   96 1    
    58   28   97 1    
    59   28   98 1    
    60   29   30 am   BACKBONE|DICT|INTERRES
    61   29   99 1    
    62   30   31 2    
    63   30   32 1    
    64   32   33 1    
    65   32   34 1    
    66   32  100 1    
    67   33  101 1    
    68   33  102 1    
    69   33  103 1    
    70   34   35 am   BACKBONE|DICT|INTERRES
    71   34  104 1    
    72   35   36 2    
    73   37   38 2    
    74   37   39 am   BACKBONE|DICT|INTERRES
    75   39   40 1    
    76   39  105 1    
    77   40   41 1    
    78   40   42 1    
    79   40  106 1    
    80   41  107 1    
    81   41  108 1    
    82   41  109 1    
    83   42   43 2    
    84   42   44 am   BACKBONE|DICT|INTERRES
    85   44   45 1    
    86   44  110 1    
    87   45   46 1    
    88   45   47 1    
    89   45  111 1    
    90   46  112 1    
    91   46  113 1    
    92   46  114 1    
    93   47   48 2    
    94   47   49 am   BACKBONE|DICT|INTERRES
    95   49   50 1    
    96   49  115 1    
    97   50   51 1    
    98   50   52 1    
    99   50  116 1    
   100   51  117 1    
   101   51  118 1    
   102   51  119 1    
   103   52   53 2    
   104   52   54 am   BACKBONE|DICT|INTERRES
   105   54   55 1    
   106   54  120 1    
   107   55   56 1    
   108   55   57 1    
   109   55  121 1    
   110   56  122 1    
   111   56  123 1    
   112   56  124 1    
   113   57   58 2    
   114   57   59 am   BACKBONE|DICT|INTERRES
   115   59   60 1    
   116   59  125 1    
   117   60   61 1    
   118   60   62 1    
   119   60  126 1    
   120   61  127 1    
   121   61  128 1    
   122   61  129 1    
   123   62   63 2    
   124   62   64 am   BACKBONE|DICT|INTERRES
   125   64   65 1    
   126   64  130 1    
   127   65   66 1    
   128   65   69 1    
   129   65  131 1    
   130   66   67 am   BACKBONE|DICT|INTERRES
   131   66   68 2    
   132   67  132 1    
   133   67  133 1    
   134   69   70 1    
   135   69  134 1    
   136   69  135 1    
   137   70   71 1    
   138   71  136 1    
   139   71  137 1    
@<TRIPOS>SUBSTRUCTURE
     1 UNK         1 GROUP             0       ****    0 ROOT    
