@<TRIPOS>MOLECULE
3R137
137   139    1
SMALL
USER_CHARGES


@<TRIPOS>ATOM
      1 CA         31.0573    0.9023    0.3821 C.3       0 UNK        -0.2020 
      2 C          30.1482    0.2242   -0.6316 C.2       0 UNK         0.4855 
      3 O          30.0199    0.7069   -1.7562 O.2       0 UNK        -0.5197 
      4 N          29.5259   -0.8966   -0.2452 N.am      1 UNK        -0.4892 
      5 CA         28.5892   -1.6615   -1.0756 C.3       1 UNK         0.0835 
      6 C6         28.3206   -3.0693   -0.4837 C.3       12 UNK        -0.0855 
      7 S7         29.7580   -4.1804   -0.2224 S.3       12 UNK        -0.2931 
      8 C8         31.0975   -3.6036   -1.3337 C.3       12 UNK         0.0378 
      9 C9         30.8324   -3.7001   -2.8381 C.ar      12 UNK        -0.0802 
     10 C10        31.7639   -3.1236   -3.7096 C.ar      12 UNK        -0.0944 
     11 C11        31.5851   -3.1762   -5.0991 C.ar      12 UNK        -0.0787 
     12 C12        30.4394   -3.7951   -5.6074 C.ar      12 UNK        -0.0862 
     13 C13        29.4998   -4.3775   -4.7538 C.ar      12 UNK        -0.0733 
     14 C14        29.7105   -4.3448   -3.3746 C.ar      12 UNK        -0.0832 
     15 C15        28.2613   -5.0503   -5.3225 C.3       12 UNK         0.0240 
     16 S16        26.7432   -4.1272   -4.9175 S.3       12 UNK        -0.2522 
     17 C17        25.5856   -4.8663   -6.1240 C.3       12 UNK        -0.0967 
     18 CA         24.9960   -3.8798   -7.1684 C.3       5 UNK         0.0660 
     19 N          24.0136   -2.9685   -6.5701 N.am      5 UNK        -0.4015 
     20 C          22.7234   -2.8943   -6.9335 C.2       4 UNK         0.4946 
     21 O          22.1966   -3.6541   -7.7475 O.2       4 UNK        -0.5353 
     22 CA         21.8617   -1.7752   -6.3151 C.3       4 UNK         0.0277 
     23 CB         21.0617   -2.3183   -5.1197 C.3       4 UNK        -0.1981 
     24 N          22.6161   -0.5944   -5.8884 N.am      4 UNK        -0.4209 
     25 C          23.3755    0.1836   -6.6745 C.2       3 UNK         0.4942 
     26 O          23.4814    0.0312   -7.8906 O.2       3 UNK        -0.5208 
     27 CA         24.2270    1.2601   -5.9744 C.3       3 UNK         0.0250 
     28 CB         23.5337    2.6296   -6.0389 C.3       3 UNK        -0.1990 
     29 N          24.5408    0.9313   -4.5777 N.am      3 UNK        -0.4232 
     30 C          25.2487   -0.1401   -4.1949 C.2       2 UNK         0.4993 
     31 O          25.7584   -0.9378   -4.9866 O.2       2 UNK        -0.5286 
     32 CA         25.3182   -0.4102   -2.6905 C.3       2 UNK         0.0209 
     33 CB         24.1387   -1.2966   -2.2519 C.3       2 UNK        -0.1931 
     34 N          26.5743   -1.0826   -2.3700 N.am      2 UNK        -0.4546 
     35 C          27.2573   -0.8954   -1.2341 C.2       1 UNK         0.5154 
     36 O          26.8542   -0.1792   -0.3122 O.2       1 UNK        -0.5181 
     37 C          26.0535   -3.1055   -7.9914 C.2       5 UNK         0.5014 
     38 O          27.0856   -3.6797   -8.3413 O.2       5 UNK        -0.5248 
     39 N          25.7717   -1.8285   -8.3033 N.am      6 UNK        -0.4434 
     40 CA         26.5990   -0.8753   -9.0509 C.3       6 UNK         0.0363 
     41 CB         26.8428   -1.3555  -10.4974 C.3       6 UNK        -0.1936 
     42 C          27.9037   -0.4707   -8.3403 C.2       6 UNK         0.5081 
     43 O          28.8174    0.0230   -9.0057 O.2       6 UNK        -0.5248 
     44 N          27.9754   -0.6197   -7.0068 N.am      7 UNK        -0.4718 
     45 CA         29.1642   -0.2889   -6.2088 C.3       7 UNK         0.0273 
     46 CB         28.9609   -0.7046   -4.7492 C.3       7 UNK        -0.1935 
     47 C          29.5501    1.1948   -6.2712 C.2       7 UNK         0.5018 
     48 O          30.7367    1.5084   -6.2293 O.2       7 UNK        -0.5186 
     49 N          28.5487    2.0694   -6.4384 N.am      8 UNK        -0.4240 
     50 CA         28.7120    3.5090   -6.6536 C.3       8 UNK         0.0235 
     51 CB         27.3237    4.1700   -6.6765 C.3       8 UNK        -0.2000 
     52 C          29.5041    3.8654   -7.9281 C.2       8 UNK         0.4941 
     53 O          30.0993    4.9425   -7.9757 O.2       8 UNK        -0.5273 
     54 N          29.5052    2.9659   -8.9224 N.am      9 UNK        -0.4262 
     55 CA         30.2992    3.0760  -10.1436 C.3       9 UNK         0.0264 
     56 CB         29.4393    2.6707  -11.3535 C.3       9 UNK        -0.1955 
     57 C          31.5593    2.2031  -10.0526 C.2       9 UNK         0.5031 
     58 O          32.6557    2.6990  -10.3137 O.2       9 UNK        -0.5390 
     59 N          31.3859    0.9218   -9.6979 N.am      10 UNK        -0.4204 
     60 CA         32.4404   -0.0956   -9.7154 C.3       10 UNK         0.0237 
     61 CB         31.7930   -1.4899   -9.6618 C.3       10 UNK        -0.1985 
     62 C          33.5093    0.0604   -8.6184 C.2       10 UNK         0.4970 
     63 O          34.6568   -0.3193   -8.8548 O.2       10 UNK        -0.4914 
     64 N          33.1253    0.5976   -7.4554 N.am      11 UNK        -0.4285 
     65 CA         33.9825    0.8128   -6.2783 C.3       11 UNK         0.1007 
     66 C          34.0297    2.3093   -5.8493 C.2       11 UNK         0.5703 
     67 N          33.5691    3.2513   -6.6655 N.am      11 UNK        -0.7361 
     68 O          34.5276    2.6336   -4.7734 O.2       11 UNK        -0.4986 
     69 C69        33.5880   -0.1415   -5.1115 C.3       12 UNK        -0.0947 
     70 S70        34.1095   -1.8619   -5.4224 S.3       12 UNK        -0.2240 
     71 C71        32.5887   -2.6059   -6.1040 C.3       12 UNK         0.0194 
     72 H72        32.0716    0.9695   -0.0105 H         1 UNK         0.0906 
     73 H73        30.7030    1.9123    0.5861 H         1 UNK         0.0906 
     74 H74        31.0945    0.3583    1.3259 H         1 UNK         0.0906 
     75 H75        29.6459   -1.2358    0.6984 H         1 UNK         0.3140 
     76 H76        29.0275   -1.7690   -2.0682 H         1 UNK         0.1085 
     77 H77        27.6190   -3.6081   -1.1239 H         1 UNK         0.0836 
     78 H78        27.8150   -2.9752    0.4798 H         1 UNK         0.0836 
     79 H79        31.3757   -2.5828   -1.0749 H         1 UNK         0.0731 
     80 H80        31.9785   -4.2091   -1.1168 H         1 UNK         0.0731 
     81 H81        32.6345   -2.6403   -3.2903 H         1 UNK         0.1312 
     82 H82        30.2805   -3.8285   -6.6771 H         1 UNK         0.1406 
     83 H83        28.9818   -4.8168   -2.7323 H         1 UNK         0.1631 
     84 H84        28.1818   -6.0653   -4.9310 H         1 UNK         0.0717 
     85 H85        28.3529   -5.1424   -6.4057 H         1 UNK         0.0717 
     86 H86        26.0776   -5.6899   -6.6441 H         1 UNK         0.0934 
     87 H87        24.7735   -5.3338   -5.5651 H         1 UNK         0.0934 
     88 H88        24.4948   -4.5025   -7.9120 H         1 UNK         0.0739 
     89 H89        24.3890   -2.3131   -5.8925 H         1 UNK         0.3093 
     90 H90        21.1558   -1.4502   -7.0825 H         1 UNK         0.0818 
     91 H91        20.3733   -1.5694   -4.7276 H         1 UNK         0.0819 
     92 H92        20.4630   -3.1826   -5.4111 H         1 UNK         0.0819 
     93 H93        21.7152   -2.6352   -4.3057 H         1 UNK         0.0819 
     94 H94        22.5884   -0.3785   -4.9033 H         1 UNK         0.3041 
     95 H95        25.1707    1.3292   -6.5193 H         1 UNK         0.0784 
     96 H96        22.5881    2.6311   -5.4953 H         1 UNK         0.0793 
     97 H97        24.1639    3.4146   -5.6205 H         1 UNK         0.0793 
     98 H98        23.3166    2.9082   -7.0713 H         1 UNK         0.0793 
     99 H99        24.1449    1.5373   -3.8725 H         1 UNK         0.3024 
    100 H100       25.2680    0.5487   -2.1688 H         1 UNK         0.1171 
    101 H101       23.1821   -0.8181   -2.4650 H         1 UNK         0.0786 
    102 H102       24.1680   -1.4911   -1.1796 H         1 UNK         0.0786 
    103 H103       24.1471   -2.2595   -2.7652 H         1 UNK         0.0786 
    104 H104       26.9411   -1.6662   -3.1121 H         1 UNK         0.2977 
    105 H105       24.8783   -1.4521   -8.0041 H         1 UNK         0.3127 
    106 H106       26.0081    0.0395   -9.1122 H         1 UNK         0.0770 
    107 H107       27.5068   -2.2196  -10.5312 H         1 UNK         0.0814 
    108 H108       27.3054   -0.5711  -11.0978 H         1 UNK         0.0814 
    109 H109       25.9090   -1.6279  -10.9888 H         1 UNK         0.0814 
    110 H110       27.1786   -0.9964   -6.5024 H         1 UNK         0.2983 
    111 H111       29.9937   -0.8667   -6.6170 H         1 UNK         0.0947 
    112 H112       29.9087   -0.6827   -4.2095 H         1 UNK         0.0806 
    113 H113       28.5630   -1.7143   -4.6704 H         1 UNK         0.0806 
    114 H114       28.2826   -0.0266   -4.2325 H         1 UNK         0.0806 
    115 H115       27.6084    1.7051   -6.4619 H         1 UNK         0.3000 
    116 H116       29.2716    3.9065   -5.8042 H         1 UNK         0.0850 
    117 H117       27.4082    5.2497   -6.8089 H         1 UNK         0.0810 
    118 H118       26.7879    4.0019   -5.7420 H         1 UNK         0.0810 
    119 H119       26.7072    3.7894   -7.4919 H         1 UNK         0.0810 
    120 H120       29.0185    2.0883   -8.7827 H         1 UNK         0.3040 
    121 H121       30.6190    4.1093  -10.2952 H         1 UNK         0.0766 
    122 H122       30.0140    2.7338  -12.2785 H         1 UNK         0.0812 
    123 H123       28.5783    3.3302  -11.4624 H         1 UNK         0.0812 
    124 H124       29.0668    1.6489  -11.2697 H         1 UNK         0.0812 
    125 H125       30.4435    0.5911   -9.4905 H         1 UNK         0.3205 
    126 H126       32.9613   -0.0119  -10.6718 H         1 UNK         0.0754 
    127 H127       31.1337   -1.5995   -8.8012 H         1 UNK         0.0769 
    128 H128       31.1970   -1.6790  -10.5549 H         1 UNK         0.0769 
    129 H129       32.5472   -2.2761   -9.6041 H         1 UNK         0.0769 
    130 H130       32.1669    0.9103   -7.3270 H         1 UNK         0.2981 
    131 H131       35.0182    0.5943   -6.5431 H         1 UNK         0.0541 
    132 H132       33.1859    3.0068   -7.5645 H         1 UNK         0.3459 
    133 H133       33.6128    4.2160   -6.3791 H         1 UNK         0.3459 
    134 H134       32.5151   -0.1043   -4.9158 H         1 UNK         0.0612 
    135 H135       34.0723    0.1568   -4.1805 H         1 UNK         0.0612 
    136 H136       32.0859   -1.8656   -6.7212 H         1 UNK         0.0624 
    137 H137       32.8923   -3.4091   -6.7766 H         1 UNK         0.0624 
@<TRIPOS>BOND
     1    1    2 1    
     2    1   72 1    
     3    1   73 1    
     4    1   74 1    
     5    2    3 2    
     6    2    4 am   BACKBONE|DICT|INTERRES
     7    4    5 1    
     8    4   75 1    
     9    5    6 1    
    10    5   35 1    
    11    5   76 1    
    12    6    7 1    
    13    6   77 1    
    14    6   78 1    
    15    7    8 1    
    16    8    9 1    
    17    8   79 1    
    18    8   80 1    
    19    9   10 ar   
    20    9   14 ar   
    21   10   11 ar   
    22   10   81 1    
    23   11   12 ar   
    24   11   71 1    
    25   12   13 ar   
    26   12   82 1    
    27   13   14 ar   
    28   13   15 1    
    29   14   83 1    
    30   15   16 1    
    31   15   84 1    
    32   15   85 1    
    33   16   17 1    
    34   17   18 1    
    35   17   86 1    
    36   17   87 1    
    37   18   19 1    
    38   18   37 1    
    39   18   88 1    
    40   19   20 am   BACKBONE|DICT|INTERRES
    41   19   89 1    
    42   20   21 2    
    43   20   22 1    
    44   22   23 1    
    45   22   24 1    
    46   22   90 1    
    47   23   91 1    
    48   23   92 1    
    49   23   93 1    
    50   24   25 am   BACKBONE|DICT|INTERRES
    51   24   94 1    
    52   25   26 2    
    53   25   27 1    
    54   27   28 1    
    55   27   29 1    
    56   27   95 1    
    57   28   96 1    
    58   28   97 1    
    59   28   98 1    
    60   29   30 am   BACKBONE|DICT|INTERRES
    61   29   99 1    
    62   30   31 2    
    63   30   32 1    
    64   32   33 1    
    65   32   34 1    
    66   32  100 1    
    67   33  101 1    
    68   33  102 1    
    69   33  103 1    
    70   34   35 am   BACKBONE|DICT|INTERRES
    71   34  104 1    
    72   35   36 2    
    73   37   38 2    
    74   37   39 am   BACKBONE|DICT|INTERRES
    75   39   40 1    
    76   39  105 1    
    77   40   41 1    
    78   40   42 1    
    79   40  106 1    
    80   41  107 1    
    81   41  108 1    
    82   41  109 1    
    83   42   43 2    
    84   42   44 am   BACKBONE|DICT|INTERRES
    85   44   45 1    
    86   44  110 1    
    87   45   46 1    
    88   45   47 1    
    89   45  111 1    
    90   46  112 1    
    91   46  113 1    
    92   46  114 1    
    93   47   48 2    
    94   47   49 am   BACKBONE|DICT|INTERRES
    95   49   50 1    
    96   49  115 1    
    97   50   51 1    
    98   50   52 1    
    99   50  116 1    
   100   51  117 1    
   101   51  118 1    
   102   51  119 1    
   103   52   53 2    
   104   52   54 am   BACKBONE|DICT|INTERRES
   105   54   55 1    
   106   54  120 1    
   107   55   56 1    
   108   55   57 1    
   109   55  121 1    
   110   56  122 1    
   111   56  123 1    
   112   56  124 1    
   113   57   58 2    
   114   57   59 am   BACKBONE|DICT|INTERRES
   115   59   60 1    
   116   59  125 1    
   117   60   61 1    
   118   60   62 1    
   119   60  126 1    
   120   61  127 1    
   121   61  128 1    
   122   61  129 1    
   123   62   63 2    
   124   62   64 am   BACKBONE|DICT|INTERRES
   125   64   65 1    
   126   64  130 1    
   127   65   66 1    
   128   65   69 1    
   129   65  131 1    
   130   66   67 am   BACKBONE|DICT|INTERRES
   131   66   68 2    
   132   67  132 1    
   133   67  133 1    
   134   69   70 1    
   135   69  134 1    
   136   69  135 1    
   137   70   71 1    
   138   71  136 1    
   139   71  137 1    
@<TRIPOS>SUBSTRUCTURE
     1 UNK         1 GROUP             0       ****    0 ROOT    
