@<TRIPOS>MOLECULE
3R137
137   139    1
SMALL
USER_CHARGES


@<TRIPOS>ATOM
      1 CA         26.8841   -0.4429    2.6977 C.3       0 UNK        -0.2020 
      2 C          26.8442   -1.9574    2.5086 C.2       0 UNK         0.4855 
      3 O          26.6411   -2.6792    3.4826 O.2       0 UNK        -0.5197 
      4 N          27.0342   -2.4932    1.2935 N.am      1 UNK        -0.4892 
      5 CA         27.2593   -1.7849    0.0231 C.3       1 UNK         0.0835 
      6 C6         27.7292   -2.7514   -1.0929 C.3       12 UNK        -0.0855 
      7 S7         29.2834   -3.6068   -0.6694 S.3       12 UNK        -0.2931 
      8 C8         30.5070   -2.6060   -1.5868 C.3       12 UNK         0.0378 
      9 C9         30.5203   -2.7728   -3.1098 C.ar      12 UNK        -0.0802 
     10 C10        31.3585   -1.9348   -3.8517 C.ar      12 UNK        -0.0944 
     11 C11        31.4366   -2.0447   -5.2426 C.ar      12 UNK        -0.0787 
     12 C12        30.6686   -3.0063   -5.9021 C.ar      12 UNK        -0.0862 
     13 C13        29.8223   -3.8506   -5.1796 C.ar      12 UNK        -0.0733 
     14 C14        29.7535   -3.7316   -3.7878 C.ar      12 UNK        -0.0832 
     15 C15        28.9953   -4.9088   -5.8929 C.3       12 UNK         0.0240 
     16 S16        27.3502   -4.2832   -6.3543 S.3       12 UNK        -0.2522 
     17 C17        27.6734   -3.4902   -7.9695 C.3       12 UNK        -0.0967 
     18 CA         27.1928   -2.0218   -8.0659 C.3       5 UNK         0.0660 
     19 N          25.7934   -1.8616   -7.6602 N.am      5 UNK        -0.4015 
     20 C          25.0790   -0.7317   -7.7504 C.2       4 UNK         0.4946 
     21 O          25.5088    0.3047   -8.2579 O.2       4 UNK        -0.5353 
     22 CA         23.6699   -0.7299   -7.1346 C.3       4 UNK         0.0277 
     23 CB         22.6135   -0.9343   -8.2320 C.3       4 UNK        -0.1981 
     24 N          23.4532   -1.7081   -6.0597 N.am      4 UNK        -0.4209 
     25 C          24.1548   -1.7870   -4.9194 C.2       3 UNK         0.4942 
     26 O          25.1645   -1.1198   -4.6812 O.2       3 UNK        -0.5208 
     27 CA         23.6687   -2.8282   -3.8975 C.3       3 UNK         0.0250 
     28 CB         24.4445   -4.1448   -4.0622 C.3       3 UNK        -0.1990 
     29 N          23.8250   -2.3566   -2.5218 N.am      3 UNK        -0.4232 
     30 C          23.1575   -1.3336   -1.9682 C.2       2 UNK         0.4993 
     31 O          22.2634   -0.7097   -2.5420 O.2       2 UNK        -0.5286 
     32 CA         23.5294   -0.9512   -0.5221 C.3       2 UNK         0.0209 
     33 CB         22.4386   -1.4148    0.4580 C.3       2 UNK        -0.1931 
     34 N          24.8197   -1.5006   -0.0914 N.am      2 UNK        -0.4546 
     35 C          26.0138   -1.0126   -0.4576 C.2       1 UNK         0.5154 
     36 O          26.1560    0.0005   -1.1406 O.2       1 UNK        -0.5181 
     37 C          28.1563   -1.0355   -7.3717 C.2       5 UNK         0.5014 
     38 O          29.1320   -0.6232   -8.0013 O.2       5 UNK        -0.5248 
     39 N          27.8360   -0.5975   -6.1440 N.am      6 UNK        -0.4434 
     40 CA         28.5783    0.4427   -5.4252 C.3       6 UNK         0.0363 
     41 CB         28.0449    0.5513   -3.9898 C.3       6 UNK        -0.1936 
     42 C          28.5646    1.8189   -6.1204 C.2       6 UNK         0.5081 
     43 O          29.4544    2.6259   -5.8532 O.2       6 UNK        -0.5248 
     44 N          27.5852    2.0576   -7.0038 N.am      7 UNK        -0.4718 
     45 CA         27.5099    3.2327   -7.8701 C.3       7 UNK         0.0273 
     46 CB         26.0997    3.8395   -7.7812 C.3       7 UNK        -0.1935 
     47 C          27.8500    2.8717   -9.3245 C.2       7 UNK         0.5018 
     48 O          28.5915    3.6152   -9.9663 O.2       7 UNK        -0.5186 
     49 N          27.2919    1.7598   -9.8276 N.am      8 UNK        -0.4240 
     50 CA         27.3921    1.3432  -11.2289 C.3       8 UNK         0.0235 
     51 CB         26.3078    0.2989  -11.5417 C.3       8 UNK        -0.2000 
     52 C          28.7836    0.8278  -11.6292 C.2       8 UNK         0.4941 
     53 O          29.2683    1.1984  -12.6992 O.2       8 UNK        -0.5273 
     54 N          29.4010   -0.0083  -10.7819 N.am      9 UNK        -0.4262 
     55 CA         30.7724   -0.4921  -10.9725 C.3       9 UNK         0.0264 
     56 CB         30.9218   -1.9167  -10.4103 C.3       9 UNK        -0.1955 
     57 C          31.7845    0.4603  -10.3206 C.2       9 UNK         0.5031 
     58 O          32.8990    0.5888  -10.8284 O.2       9 UNK        -0.5390 
     59 N          31.3836    1.1061   -9.2139 N.am      10 UNK        -0.4204 
     60 CA         32.0727    2.1621   -8.4537 C.3       10 UNK         0.0237 
     61 CB         32.3261    3.4035   -9.3310 C.3       10 UNK        -0.1985 
     62 C          33.3607    1.7343   -7.7248 C.2       10 UNK         0.4970 
     63 O          33.6465    2.2873   -6.6628 O.2       10 UNK        -0.4914 
     64 N          34.0961    0.7632   -8.2797 N.am      11 UNK        -0.4285 
     65 CA         35.3290    0.1666   -7.7365 C.3       11 UNK         0.1007 
     66 C          36.5542    1.1325   -7.7027 C.2       11 UNK         0.5703 
     67 N          36.5432    2.2398   -8.4361 N.am      11 UNK        -0.7361 
     68 O          37.5478    0.8623   -7.0315 O.2       11 UNK        -0.4986 
     69 C69        35.1010   -0.5700   -6.3831 C.3       12 UNK        -0.0947 
     70 S70        33.8952   -1.9368   -6.4942 S.3       12 UNK        -0.2240 
     71 C71        32.3399   -1.1131   -6.0317 C.3       12 UNK         0.0194 
     72 H72        25.9703    0.0173    2.3232 H         1 UNK         0.0906 
     73 H73        26.9677   -0.1967    3.7561 H         1 UNK         0.0906 
     74 H74        27.7390    0.0054    2.1935 H         1 UNK         0.0906 
     75 H75        27.0486   -3.5009    1.2198 H         1 UNK         0.3140 
     76 H76        28.0516   -1.0496    0.1753 H         1 UNK         0.1085 
     77 H77        26.9717   -3.5134   -1.2864 H         1 UNK         0.0836 
     78 H78        27.8624   -2.2206   -2.0371 H         1 UNK         0.0836 
     79 H79        31.4976   -2.8635   -1.2094 H         1 UNK         0.0731 
     80 H80        30.3497   -1.5545   -1.3408 H         1 UNK         0.0731 
     81 H81        31.9581   -1.1926   -3.3421 H         1 UNK         0.1312 
     82 H82        30.7323   -3.0926   -6.9777 H         1 UNK         0.1406 
     83 H83        29.1010   -4.3988   -3.2435 H         1 UNK         0.1631 
     84 H84        28.8645   -5.7724   -5.2390 H         1 UNK         0.0717 
     85 H85        29.5196   -5.2805   -6.7745 H         1 UNK         0.0717 
     86 H86        28.7302   -3.5661   -8.2305 H         1 UNK         0.0934 
     87 H87        27.1545   -4.0832   -8.7244 H         1 UNK         0.0934 
     88 H88        27.2267   -1.7583   -9.1236 H         1 UNK         0.0739 
     89 H89        25.3752   -2.6587   -7.2034 H         1 UNK         0.3093 
     90 H90        23.5210    0.2605   -6.6993 H         1 UNK         0.0818 
     91 H91        22.7366   -0.2042   -9.0337 H         1 UNK         0.0819 
     92 H92        21.6035   -0.8121   -7.8404 H         1 UNK         0.0819 
     93 H93        22.6838   -1.9257   -8.6814 H         1 UNK         0.0819 
     94 H94        22.6553   -2.3177   -6.1715 H         1 UNK         0.3041 
     95 H95        22.6072   -3.0220   -4.0662 H         1 UNK         0.0784 
     96 H96        24.3405   -4.5391   -5.0739 H         1 UNK         0.0793 
     97 H97        25.5107   -4.0098   -3.8736 H         1 UNK         0.0793 
     98 H98        24.0776   -4.9112   -3.3792 H         1 UNK         0.0793 
     99 H99        24.5492   -2.7950   -1.9754 H         1 UNK         0.3024 
    100 H100       23.5844    0.1395   -0.4836 H         1 UNK         0.1171 
    101 H101       22.6566   -1.0917    1.4762 H         1 UNK         0.0786 
    102 H102       21.4678   -0.9962    0.1885 H         1 UNK         0.0786 
    103 H103       22.3347   -2.5006    0.4638 H         1 UNK         0.0786 
    104 H104       24.7974   -2.3229    0.4959 H         1 UNK         0.2977 
    105 H105       26.9951   -0.9480   -5.6949 H         1 UNK         0.3127 
    106 H106       29.6208    0.1257   -5.3741 H         1 UNK         0.0770 
    107 H107       26.9934    0.8405   -3.9689 H         1 UNK         0.0814 
    108 H108       28.6008    1.2960   -3.4189 H         1 UNK         0.0814 
    109 H109       28.1413   -0.3966   -3.4627 H         1 UNK         0.0814 
    110 H110       26.8973    1.3319   -7.1732 H         1 UNK         0.2983 
    111 H111       28.2237    3.9932   -7.5453 H         1 UNK         0.0947 
    112 H112       26.0107    4.7160   -8.4245 H         1 UNK         0.0806 
    113 H113       25.8724    4.1598   -6.7643 H         1 UNK         0.0806 
    114 H114       25.3300    3.1296   -8.0870 H         1 UNK         0.0806 
    115 H115       26.6552    1.2232   -9.2393 H         1 UNK         0.3000 
    116 H116       27.1861    2.2220  -11.8444 H         1 UNK         0.0850 
    117 H117       26.3315    0.0166  -12.5951 H         1 UNK         0.0810 
    118 H118       25.3112    0.6890  -11.3337 H         1 UNK         0.0810 
    119 H119       26.4360   -0.6119  -10.9586 H         1 UNK         0.0810 
    120 H120       28.9672   -0.2325   -9.8925 H         1 UNK         0.3040 
    121 H121       30.9964   -0.5362  -12.0407 H         1 UNK         0.0766 
    122 H122       30.1648   -2.5872  -10.8168 H         1 UNK         0.0812 
    123 H123       30.8489   -1.9447   -9.3237 H         1 UNK         0.0812 
    124 H124       31.8960   -2.3311  -10.6727 H         1 UNK         0.0812 
    125 H125       30.4875    0.8237   -8.8326 H         1 UNK         0.3205 
    126 H126       31.3700    2.4573   -7.6743 H         1 UNK         0.0754 
    127 H127       31.4005    3.7652   -9.7794 H         1 UNK         0.0769 
    128 H128       33.0309    3.1984  -10.1372 H         1 UNK         0.0769 
    129 H129       32.7393    4.2211   -8.7389 H         1 UNK         0.0769 
    130 H130       33.8100    0.4396   -9.1997 H         1 UNK         0.2981 
    131 H131       35.6153   -0.5932   -8.4642 H         1 UNK         0.0541 
    132 H132       35.7438    2.4670   -9.0050 H         1 UNK         0.3459 
    133 H133       37.3434    2.8521   -8.4179 H         1 UNK         0.3459 
    134 H134       36.0337   -1.0206   -6.0403 H         1 UNK         0.0612 
    135 H135       34.8090    0.1274   -5.5972 H         1 UNK         0.0612 
    136 H136       32.5427   -0.2135   -5.4494 H         1 UNK         0.0624 
    137 H137       31.8268   -0.7843   -6.9363 H         1 UNK         0.0624 
@<TRIPOS>BOND
     1    1    2 1    
     2    1   72 1    
     3    1   73 1    
     4    1   74 1    
     5    2    3 2    
     6    2    4 am   BACKBONE|DICT|INTERRES
     7    4    5 1    
     8    4   75 1    
     9    5    6 1    
    10    5   35 1    
    11    5   76 1    
    12    6    7 1    
    13    6   77 1    
    14    6   78 1    
    15    7    8 1    
    16    8    9 1    
    17    8   79 1    
    18    8   80 1    
    19    9   10 ar   
    20    9   14 ar   
    21   10   11 ar   
    22   10   81 1    
    23   11   12 ar   
    24   11   71 1    
    25   12   13 ar   
    26   12   82 1    
    27   13   14 ar   
    28   13   15 1    
    29   14   83 1    
    30   15   16 1    
    31   15   84 1    
    32   15   85 1    
    33   16   17 1    
    34   17   18 1    
    35   17   86 1    
    36   17   87 1    
    37   18   19 1    
    38   18   37 1    
    39   18   88 1    
    40   19   20 am   BACKBONE|DICT|INTERRES
    41   19   89 1    
    42   20   21 2    
    43   20   22 1    
    44   22   23 1    
    45   22   24 1    
    46   22   90 1    
    47   23   91 1    
    48   23   92 1    
    49   23   93 1    
    50   24   25 am   BACKBONE|DICT|INTERRES
    51   24   94 1    
    52   25   26 2    
    53   25   27 1    
    54   27   28 1    
    55   27   29 1    
    56   27   95 1    
    57   28   96 1    
    58   28   97 1    
    59   28   98 1    
    60   29   30 am   BACKBONE|DICT|INTERRES
    61   29   99 1    
    62   30   31 2    
    63   30   32 1    
    64   32   33 1    
    65   32   34 1    
    66   32  100 1    
    67   33  101 1    
    68   33  102 1    
    69   33  103 1    
    70   34   35 am   BACKBONE|DICT|INTERRES
    71   34  104 1    
    72   35   36 2    
    73   37   38 2    
    74   37   39 am   BACKBONE|DICT|INTERRES
    75   39   40 1    
    76   39  105 1    
    77   40   41 1    
    78   40   42 1    
    79   40  106 1    
    80   41  107 1    
    81   41  108 1    
    82   41  109 1    
    83   42   43 2    
    84   42   44 am   BACKBONE|DICT|INTERRES
    85   44   45 1    
    86   44  110 1    
    87   45   46 1    
    88   45   47 1    
    89   45  111 1    
    90   46  112 1    
    91   46  113 1    
    92   46  114 1    
    93   47   48 2    
    94   47   49 am   BACKBONE|DICT|INTERRES
    95   49   50 1    
    96   49  115 1    
    97   50   51 1    
    98   50   52 1    
    99   50  116 1    
   100   51  117 1    
   101   51  118 1    
   102   51  119 1    
   103   52   53 2    
   104   52   54 am   BACKBONE|DICT|INTERRES
   105   54   55 1    
   106   54  120 1    
   107   55   56 1    
   108   55   57 1    
   109   55  121 1    
   110   56  122 1    
   111   56  123 1    
   112   56  124 1    
   113   57   58 2    
   114   57   59 am   BACKBONE|DICT|INTERRES
   115   59   60 1    
   116   59  125 1    
   117   60   61 1    
   118   60   62 1    
   119   60  126 1    
   120   61  127 1    
   121   61  128 1    
   122   61  129 1    
   123   62   63 2    
   124   62   64 am   BACKBONE|DICT|INTERRES
   125   64   65 1    
   126   64  130 1    
   127   65   66 1    
   128   65   69 1    
   129   65  131 1    
   130   66   67 am   BACKBONE|DICT|INTERRES
   131   66   68 2    
   132   67  132 1    
   133   67  133 1    
   134   69   70 1    
   135   69  134 1    
   136   69  135 1    
   137   70   71 1    
   138   71  136 1    
   139   71  137 1    
@<TRIPOS>SUBSTRUCTURE
     1 UNK         1 GROUP             0       ****    0 ROOT    
