@<TRIPOS>MOLECULE
3R137
137   139    1
SMALL
USER_CHARGES


@<TRIPOS>ATOM
      1 CA         25.4095   -7.3839    0.2927 C.3       0 UNK        -0.2020 
      2 C          25.9576   -6.0476   -0.1840 C.2       0 UNK         0.4855 
      3 O          26.0354   -5.8160   -1.3909 O.2       0 UNK        -0.5197 
      4 N          26.3273   -5.1633    0.7540 N.am      1 UNK        -0.4892 
      5 CA         26.8827   -3.8138    0.5562 C.3       1 UNK         0.0835 
      6 C6         28.1556   -3.7982   -0.3308 C.3       12 UNK        -0.0855 
      7 S7         29.2724   -2.4079    0.0524 S.3       12 UNK        -0.2931 
      8 C8         30.8514   -3.0343   -0.6033 C.3       12 UNK         0.0378 
      9 C9         30.9225   -2.9279   -2.1211 C.ar      12 UNK        -0.0802 
     10 C10        31.6248   -1.8799   -2.7200 C.ar      12 UNK        -0.0944 
     11 C11        31.7465   -1.7940   -4.1104 C.ar      12 UNK        -0.0787 
     12 C12        31.1153   -2.7639   -4.9075 C.ar      12 UNK        -0.0862 
     13 C13        30.3979   -3.8155   -4.3208 C.ar      12 UNK        -0.0733 
     14 C14        30.3209   -3.8955   -2.9282 C.ar      12 UNK        -0.0832 
     15 C15        29.7521   -4.9176   -5.1593 C.3       12 UNK         0.0240 
     16 S16        28.7873   -4.3296   -6.5896 S.3       12 UNK        -0.2522 
     17 C17        27.4713   -3.3235   -5.8160 C.3       12 UNK        -0.0967 
     18 CA         27.0365   -2.1601   -6.7428 C.3       5 UNK         0.0660 
     19 N          25.7784   -1.5336   -6.3221 N.am      5 UNK        -0.4015 
     20 C          25.0633   -0.7078   -7.1063 C.2       4 UNK         0.4946 
     21 O          25.3683   -0.4354   -8.2660 O.2       4 UNK        -0.5353 
     22 CA         23.8230   -0.0277   -6.5005 C.3       4 UNK         0.0277 
     23 CB         22.5859   -0.9254   -6.6598 C.3       4 UNK        -0.1981 
     24 N          23.9868    0.3331   -5.0936 N.am      4 UNK        -0.4209 
     25 C          24.9411    1.1394   -4.6067 C.2       3 UNK         0.4942 
     26 O          25.7345    1.7619   -5.3112 O.2       3 UNK        -0.5208 
     27 CA         25.0697    1.2227   -3.0751 C.3       3 UNK         0.0250 
     28 CB         24.4128    2.5094   -2.5511 C.3       3 UNK        -0.1990 
     29 N          24.5135    0.0646   -2.3619 N.am      3 UNK        -0.4232 
     30 C          24.9235   -1.2034   -2.5107 C.2       2 UNK         0.4993 
     31 O          25.8074   -1.5547   -3.2985 O.2       2 UNK        -0.5286 
     32 CA         24.1702   -2.2664   -1.6990 C.3       2 UNK         0.0209 
     33 CB         23.2759   -3.1132   -2.6197 C.3       2 UNK        -0.1931 
     34 N          25.1138   -3.1406   -1.0104 N.am      2 UNK        -0.4546 
     35 C          25.8351   -2.7941    0.0617 C.2       1 UNK         0.5154 
     36 O          25.6857   -1.7299    0.6651 O.2       1 UNK        -0.5181 
     37 C          28.1457   -1.1046   -6.9001 C.2       5 UNK         0.5014 
     38 O          28.8073   -1.0706   -7.9385 O.2       5 UNK        -0.5248 
     39 N          28.2885   -0.2360   -5.8885 N.am      6 UNK        -0.4434 
     40 CA         29.2474    0.8690   -5.8737 C.3       6 UNK         0.0363 
     41 CB         29.2090    1.5646   -4.5044 C.3       6 UNK        -0.1936 
     42 C          29.0299    1.8701   -7.0205 C.2       6 UNK         0.5081 
     43 O          30.0085    2.3514   -7.5918 O.2       6 UNK        -0.5248 
     44 N          27.7610    2.1332   -7.3587 N.am      7 UNK        -0.4718 
     45 CA         27.3575    2.9275   -8.5165 C.3       7 UNK         0.0273 
     46 CB         25.8652    3.2798   -8.4064 C.3       7 UNK        -0.1935 
     47 C          27.6625    2.2234   -9.8496 C.2       7 UNK         0.5018 
     48 O          28.2948    2.8317  -10.7130 O.2       7 UNK        -0.5186 
     49 N          27.2172    0.9656   -9.9990 N.am      8 UNK        -0.4240 
     50 CA         27.3492    0.1780  -11.2305 C.3       8 UNK         0.0235 
     51 CB         26.5210   -1.1125  -11.1235 C.3       8 UNK        -0.2000 
     52 C          28.8020   -0.1503  -11.6045 C.2       8 UNK         0.4941 
     53 O          29.1676   -0.0133  -12.7727 O.2       8 UNK        -0.5273 
     54 N          29.6058   -0.5644  -10.6160 N.am      9 UNK        -0.4262 
     55 CA         31.0302   -0.8628  -10.7909 C.3       9 UNK         0.0264 
     56 CB         31.4646   -1.8754   -9.7194 C.3       9 UNK        -0.1955 
     57 C          31.9193    0.3948  -10.7578 C.2       9 UNK         0.5031 
     58 O          33.1057    0.2910  -11.0717 O.2       9 UNK        -0.5390 
     59 N          31.3455    1.5445  -10.3692 N.am      10 UNK        -0.4204 
     60 CA         31.9669    2.8684  -10.2271 C.3       10 UNK         0.0237 
     61 CB         32.4819    3.3894  -11.5858 C.3       10 UNK        -0.1985 
     62 C          33.0341    2.9564   -9.1160 C.2       10 UNK         0.4970 
     63 O          33.7922    3.9276   -9.0837 O.2       10 UNK        -0.4914 
     64 N          33.0664    1.9661   -8.2166 N.am      11 UNK        -0.4285 
     65 CA         33.9282    1.9240   -7.0285 C.3       11 UNK         0.1007 
     66 C          33.4016    2.7543   -5.8232 C.2       11 UNK         0.5703 
     67 N          32.1775    3.2672   -5.8485 N.am      11 UNK        -0.7361 
     68 O          34.1291    2.9548   -4.8537 O.2       11 UNK        -0.4986 
     69 C69        34.3018    0.4691   -6.6371 C.3       12 UNK        -0.0947 
     70 S70        32.8866   -0.6741   -6.4715 S.3       12 UNK        -0.2240 
     71 C71        32.6012   -0.6524   -4.6704 C.3       12 UNK         0.0194 
     72 H72        26.0206   -8.1986   -0.0948 H         1 UNK         0.0906 
     73 H73        25.3971   -7.4572    1.3800 H         1 UNK         0.0906 
     74 H74        24.3906   -7.5211   -0.0683 H         1 UNK         0.0906 
     75 H75        26.2013   -5.4192    1.7246 H         1 UNK         0.3140 
     76 H76        27.1726   -3.4909    1.5579 H         1 UNK         0.1085 
     77 H77        28.7135   -4.7232   -0.1774 H         1 UNK         0.0836 
     78 H78        27.8987   -3.7732   -1.3917 H         1 UNK         0.0836 
     79 H79        31.6633   -2.4625   -0.1509 H         1 UNK         0.0731 
     80 H80        31.0053   -4.0680   -0.2899 H         1 UNK         0.0731 
     81 H81        32.1039   -1.1369   -2.0965 H         1 UNK         0.1312 
     82 H82        31.1872   -2.7232   -5.9848 H         1 UNK         0.1406 
     83 H83        29.7983   -4.7226   -2.4684 H         1 UNK         0.1631 
     84 H84        29.0967   -5.5368   -4.5444 H         1 UNK         0.0717 
     85 H85        30.5405   -5.5771   -5.5240 H         1 UNK         0.0717 
     86 H86        26.6242   -3.9824   -5.6188 H         1 UNK         0.0934 
     87 H87        27.7955   -2.9508   -4.8421 H         1 UNK         0.0934 
     88 H88        26.8552   -2.5828   -7.7340 H         1 UNK         0.0739 
     89 H89        25.5137   -1.6552   -5.3502 H         1 UNK         0.3093 
     90 H90        23.6507    0.8961   -7.0567 H         1 UNK         0.0818 
     91 H91        21.6814   -0.4199   -6.3206 H         1 UNK         0.0819 
     92 H92        22.4314   -1.1924   -7.7064 H         1 UNK         0.0819 
     93 H93        22.6836   -1.8550   -6.0975 H         1 UNK         0.0819 
     94 H94        23.3711   -0.1188   -4.4344 H         1 UNK         0.3041 
     95 H95        26.1366    1.2646   -2.8461 H         1 UNK         0.0784 
     96 H96        24.8274    3.3885   -3.0469 H         1 UNK         0.0793 
     97 H97        23.3361    2.5144   -2.7261 H         1 UNK         0.0793 
     98 H98        24.5815    2.6350   -1.4814 H         1 UNK         0.0793 
     99 H99        23.7773    0.2622   -1.6987 H         1 UNK         0.3024 
    100 H100       23.5402   -1.7785   -0.9516 H         1 UNK         0.1171 
    101 H101       23.8581   -3.6342   -3.3813 H         1 UNK         0.0786 
    102 H102       22.5432   -2.4916   -3.1360 H         1 UNK         0.0786 
    103 H103       22.7221   -3.8623   -2.0533 H         1 UNK         0.0786 
    104 H104       25.3235   -4.0381   -1.4395 H         1 UNK         0.2977 
    105 H105       27.6814   -0.3240   -5.0863 H         1 UNK         0.3127 
    106 H106       30.2382    0.4366   -6.0101 H         1 UNK         0.0770 
    107 H107       29.4411    0.8665   -3.6997 H         1 UNK         0.0814 
    108 H108       28.2326    2.0039   -4.2998 H         1 UNK         0.0814 
    109 H109       29.9420    2.3692   -4.4532 H         1 UNK         0.0814 
    110 H110       27.0183    1.7594   -6.7738 H         1 UNK         0.2983 
    111 H111       27.9268    3.8597   -8.4971 H         1 UNK         0.0947 
    112 H112       25.5457    3.8945   -9.2489 H         1 UNK         0.0806 
    113 H113       25.6584    3.8428   -7.4960 H         1 UNK         0.0806 
    114 H114       25.2373    2.3885   -8.3948 H         1 UNK         0.0806 
    115 H115       26.6892    0.5329   -9.2440 H         1 UNK         0.3000 
    116 H116       26.9324    0.7759  -12.0438 H         1 UNK         0.0850 
    117 H117       26.6067   -1.7110  -12.0314 H         1 UNK         0.0810 
    118 H118       25.4630   -0.8927  -10.9803 H         1 UNK         0.0810 
    119 H119       26.8496   -1.7334  -10.2889 H         1 UNK         0.0810 
    120 H120       29.2270   -0.6794   -9.6749 H         1 UNK         0.3040 
    121 H121       31.1769   -1.3303  -11.7669 H         1 UNK         0.0766 
    122 H122       32.5251   -2.1158   -9.8062 H         1 UNK         0.0812 
    123 H123       30.9104   -2.8097   -9.8101 H         1 UNK         0.0812 
    124 H124       31.2972   -1.4900   -8.7151 H         1 UNK         0.0812 
    125 H125       30.3650    1.5114  -10.1216 H         1 UNK         0.3205 
    126 H126       31.1612    3.5322   -9.9097 H         1 UNK         0.0754 
    127 H127       32.7918    4.4326  -11.5143 H         1 UNK         0.0769 
    128 H128       31.7055    3.3362  -12.3492 H         1 UNK         0.0769 
    129 H129       33.3416    2.8198  -11.9397 H         1 UNK         0.0769 
    130 H130       32.3810    1.2290   -8.2872 H         1 UNK         0.2981 
    131 H131       34.8683    2.4081   -7.2998 H         1 UNK         0.0541 
    132 H132       31.5483    3.0689   -6.6196 H         1 UNK         0.3459 
    133 H133       31.8647    3.8251   -5.0712 H         1 UNK         0.3459 
    134 H134       34.9079    0.4488   -5.7299 H         1 UNK         0.0612 
    135 H135       34.9444    0.0548   -7.4153 H         1 UNK         0.0612 
    136 H136       33.5701   -0.6819   -4.1703 H         1 UNK         0.0624 
    137 H137       32.1421    0.2998   -4.4024 H         1 UNK         0.0624 
@<TRIPOS>BOND
     1    1    2 1    
     2    1   72 1    
     3    1   73 1    
     4    1   74 1    
     5    2    3 2    
     6    2    4 am   BACKBONE|DICT|INTERRES
     7    4    5 1    
     8    4   75 1    
     9    5    6 1    
    10    5   35 1    
    11    5   76 1    
    12    6    7 1    
    13    6   77 1    
    14    6   78 1    
    15    7    8 1    
    16    8    9 1    
    17    8   79 1    
    18    8   80 1    
    19    9   10 ar   
    20    9   14 ar   
    21   10   11 ar   
    22   10   81 1    
    23   11   12 ar   
    24   11   71 1    
    25   12   13 ar   
    26   12   82 1    
    27   13   14 ar   
    28   13   15 1    
    29   14   83 1    
    30   15   16 1    
    31   15   84 1    
    32   15   85 1    
    33   16   17 1    
    34   17   18 1    
    35   17   86 1    
    36   17   87 1    
    37   18   19 1    
    38   18   37 1    
    39   18   88 1    
    40   19   20 am   BACKBONE|DICT|INTERRES
    41   19   89 1    
    42   20   21 2    
    43   20   22 1    
    44   22   23 1    
    45   22   24 1    
    46   22   90 1    
    47   23   91 1    
    48   23   92 1    
    49   23   93 1    
    50   24   25 am   BACKBONE|DICT|INTERRES
    51   24   94 1    
    52   25   26 2    
    53   25   27 1    
    54   27   28 1    
    55   27   29 1    
    56   27   95 1    
    57   28   96 1    
    58   28   97 1    
    59   28   98 1    
    60   29   30 am   BACKBONE|DICT|INTERRES
    61   29   99 1    
    62   30   31 2    
    63   30   32 1    
    64   32   33 1    
    65   32   34 1    
    66   32  100 1    
    67   33  101 1    
    68   33  102 1    
    69   33  103 1    
    70   34   35 am   BACKBONE|DICT|INTERRES
    71   34  104 1    
    72   35   36 2    
    73   37   38 2    
    74   37   39 am   BACKBONE|DICT|INTERRES
    75   39   40 1    
    76   39  105 1    
    77   40   41 1    
    78   40   42 1    
    79   40  106 1    
    80   41  107 1    
    81   41  108 1    
    82   41  109 1    
    83   42   43 2    
    84   42   44 am   BACKBONE|DICT|INTERRES
    85   44   45 1    
    86   44  110 1    
    87   45   46 1    
    88   45   47 1    
    89   45  111 1    
    90   46  112 1    
    91   46  113 1    
    92   46  114 1    
    93   47   48 2    
    94   47   49 am   BACKBONE|DICT|INTERRES
    95   49   50 1    
    96   49  115 1    
    97   50   51 1    
    98   50   52 1    
    99   50  116 1    
   100   51  117 1    
   101   51  118 1    
   102   51  119 1    
   103   52   53 2    
   104   52   54 am   BACKBONE|DICT|INTERRES
   105   54   55 1    
   106   54  120 1    
   107   55   56 1    
   108   55   57 1    
   109   55  121 1    
   110   56  122 1    
   111   56  123 1    
   112   56  124 1    
   113   57   58 2    
   114   57   59 am   BACKBONE|DICT|INTERRES
   115   59   60 1    
   116   59  125 1    
   117   60   61 1    
   118   60   62 1    
   119   60  126 1    
   120   61  127 1    
   121   61  128 1    
   122   61  129 1    
   123   62   63 2    
   124   62   64 am   BACKBONE|DICT|INTERRES
   125   64   65 1    
   126   64  130 1    
   127   65   66 1    
   128   65   69 1    
   129   65  131 1    
   130   66   67 am   BACKBONE|DICT|INTERRES
   131   66   68 2    
   132   67  132 1    
   133   67  133 1    
   134   69   70 1    
   135   69  134 1    
   136   69  135 1    
   137   70   71 1    
   138   71  136 1    
   139   71  137 1    
@<TRIPOS>SUBSTRUCTURE
     1 UNK         1 GROUP             0       ****    0 ROOT    
