@<TRIPOS>MOLECULE
3R137
137   139    1
SMALL
USER_CHARGES


@<TRIPOS>ATOM
      1 CA         23.4407   -5.7182   -1.7965 C.3       0 UNK        -0.2020 
      2 C          24.5376   -4.7925   -1.2925 C.2       0 UNK         0.4855 
      3 O          24.2398   -3.7814   -0.6553 O.2       0 UNK        -0.5197 
      4 N          25.8045   -5.1290   -1.5702 N.am      1 UNK        -0.4892 
      5 CA         26.9716   -4.2977   -1.2530 C.3       1 UNK         0.0835 
      6 C6         28.2868   -5.1186   -1.3187 C.3       12 UNK        -0.0855 
      7 S7         29.5888   -4.4519   -0.2197 S.3       12 UNK        -0.2931 
      8 C8         31.0870   -4.5365   -1.2578 C.3       12 UNK         0.0378 
      9 C9         31.1441   -3.3985   -2.2662 C.ar      12 UNK        -0.0802 
     10 C10        31.7109   -2.1668   -1.9170 C.ar      12 UNK        -0.0944 
     11 C11        31.7280   -1.1110   -2.8350 C.ar      12 UNK        -0.0787 
     12 C12        31.1384   -1.2847   -4.0857 C.ar      12 UNK        -0.0862 
     13 C13        30.6245   -2.5232   -4.4703 C.ar      12 UNK        -0.0733 
     14 C14        30.6414   -3.5813   -3.5572 C.ar      12 UNK        -0.0832 
     15 C15        30.0748   -2.7087   -5.8765 C.3       12 UNK         0.0240 
     16 S16        28.4236   -3.4602   -5.8563 S.3       12 UNK        -0.2522 
     17 C17        27.7941   -2.9983   -7.5012 C.3       12 UNK        -0.0967 
     18 CA         26.8671   -1.7546   -7.4870 C.3       5 UNK         0.0660 
     19 N          25.8839   -1.8119   -6.3991 N.am      5 UNK        -0.4015 
     20 C          24.6135   -1.4054   -6.5094 C.2       4 UNK         0.4946 
     21 O          24.1951   -0.7144   -7.4388 O.2       4 UNK        -0.5353 
     22 CA         23.6377   -1.8953   -5.4275 C.3       4 UNK         0.0277 
     23 CB         23.5886   -3.4331   -5.3614 C.3       4 UNK        -0.1981 
     24 N          24.0004   -1.3614   -4.1194 N.am      4 UNK        -0.4209 
     25 C          23.5411   -0.2018   -3.6278 C.2       3 UNK         0.4942 
     26 O          22.6708    0.4778   -4.1741 O.2       3 UNK        -0.5208 
     27 CA         24.1552    0.3059   -2.3079 C.3       3 UNK         0.0250 
     28 CB         23.2381   -0.0390   -1.1232 C.3       3 UNK        -0.1990 
     29 N          25.5057   -0.1914   -2.0273 N.am      3 UNK        -0.4232 
     30 C          26.5684   -0.0549   -2.8335 C.2       2 UNK         0.4993 
     31 O          26.5301    0.5012   -3.9283 O.2       2 UNK        -0.5286 
     32 CA         27.8770   -0.7164   -2.3769 C.3       2 UNK         0.0209 
     33 CB         28.6721    0.2459   -1.4802 C.3       2 UNK        -0.1931 
     34 N          27.6888   -1.9929   -1.6788 N.am      2 UNK        -0.4546 
     35 C          27.0128   -3.0467   -2.1578 C.2       1 UNK         0.5154 
     36 O          26.4254   -3.0461   -3.2457 O.2       1 UNK        -0.5181 
     37 C          27.6556   -0.4334   -7.5950 C.2       5 UNK         0.5014 
     38 O          28.2487   -0.2044   -8.6523 O.2       5 UNK        -0.5248 
     39 N          27.6431    0.4466   -6.5783 N.am      6 UNK        -0.4434 
     40 CA         28.3063    1.7599   -6.6693 C.3       6 UNK         0.0363 
     41 CB         28.4275    2.4229   -5.2898 C.3       6 UNK        -0.1936 
     42 C          27.6305    2.7101   -7.6741 C.2       6 UNK         0.5081 
     43 O          28.2867    3.6235   -8.1727 O.2       6 UNK        -0.5248 
     44 N          26.3627    2.4407   -8.0203 N.am      7 UNK        -0.4718 
     45 CA         25.6309    3.0917   -9.1115 C.3       7 UNK         0.0273 
     46 CB         24.1656    2.6296   -9.0778 C.3       7 UNK        -0.1935 
     47 C          26.2451    2.8373  -10.5037 C.2       7 UNK         0.5018 
     48 O          26.0441    3.6532  -11.4033 O.2       7 UNK        -0.5186 
     49 N          27.0012    1.7384  -10.6506 N.am      8 UNK        -0.4240 
     50 CA         27.7848    1.4077  -11.8435 C.3       8 UNK         0.0235 
     51 CB         27.7340   -0.1154  -12.0628 C.3       8 UNK        -0.2000 
     52 C          29.2422    1.9042  -11.7446 C.2       8 UNK         0.4941 
     53 O          30.0374    1.5837  -12.6285 O.2       8 UNK        -0.5273 
     54 N          29.5775    2.6526  -10.6794 N.am      9 UNK        -0.4262 
     55 CA         30.8985    3.1989  -10.3399 C.3       9 UNK         0.0264 
     56 CB         31.3846    4.1966  -11.4135 C.3       9 UNK        -0.1955 
     57 C          31.9564    2.1302   -9.9956 C.2       9 UNK         0.5031 
     58 O          33.1524    2.4255  -10.0463 O.2       9 UNK        -0.5390 
     59 N          31.5139    0.9206   -9.6294 N.am      10 UNK        -0.4204 
     60 CA         32.3697   -0.1648   -9.1546 C.3       10 UNK         0.0237 
     61 CB         31.7052   -1.5055   -9.5107 C.3       10 UNK        -0.1985 
     62 C          32.5578   -0.0570   -7.6354 C.2       10 UNK         0.4970 
     63 O          31.6204    0.3485   -6.9505 O.2       10 UNK        -0.4914 
     64 N          33.7324   -0.4705   -7.1494 N.am      11 UNK        -0.4285 
     65 CA         34.1086   -0.6785   -5.7424 C.3       11 UNK         0.1007 
     66 C          35.5280   -1.3051   -5.6971 C.2       11 UNK         0.5703 
     67 N          35.8126   -2.1440   -4.7110 N.am      11 UNK        -0.7361 
     68 O          36.3741   -1.0379   -6.5500 O.2       11 UNK        -0.4986 
     69 C69        33.9844    0.5988   -4.8527 C.3       12 UNK        -0.0947 
     70 S70        34.1168    0.2801   -3.0523 S.3       12 UNK        -0.2240 
     71 C71        32.3808    0.2198   -2.4923 C.3       12 UNK         0.0194 
     72 H72        22.8783   -6.1254   -0.9568 H         1 UNK         0.0906 
     73 H73        22.7501   -5.1669   -2.4340 H         1 UNK         0.0906 
     74 H74        23.8421   -6.5512   -2.3732 H         1 UNK         0.0906 
     75 H75        25.9877   -5.9494   -2.1300 H         1 UNK         0.3140 
     76 H76        26.8344   -3.9533   -0.2250 H         1 UNK         0.1085 
     77 H77        28.6431   -5.2123   -2.3448 H         1 UNK         0.0836 
     78 H78        28.1034   -6.1403   -0.9817 H         1 UNK         0.0836 
     79 H79        31.9637   -4.4925   -0.6098 H         1 UNK         0.0731 
     80 H80        31.1329   -5.5034   -1.7615 H         1 UNK         0.0731 
     81 H81        32.1361   -2.0301   -0.9321 H         1 UNK         0.1312 
     82 H82        31.1162   -0.4541   -4.7716 H         1 UNK         0.1406 
     83 H83        30.2419   -4.5418   -3.8507 H         1 UNK         0.1631 
     84 H84        30.7544   -3.3365   -6.4540 H         1 UNK         0.0717 
     85 H85        30.0216   -1.7485   -6.3904 H         1 UNK         0.0717 
     86 H86        28.6203   -2.8842   -8.2064 H         1 UNK         0.0934 
     87 H87        27.2259   -3.8542   -7.8689 H         1 UNK         0.0934 
     88 H88        26.3085   -1.8019   -8.4249 H         1 UNK         0.0739 
     89 H89        26.1671   -2.3411   -5.5828 H         1 UNK         0.3093 
     90 H90        22.6388   -1.5499   -5.7034 H         1 UNK         0.0818 
     91 H91        22.8157   -3.7700   -4.6707 H         1 UNK         0.0819 
     92 H92        23.3553   -3.8584   -6.3384 H         1 UNK         0.0819 
     93 H93        24.5346   -3.8659   -5.0339 H         1 UNK         0.0819 
     94 H94        24.7424   -1.8421   -3.6214 H         1 UNK         0.3041 
     95 H95        24.2230    1.3929   -2.3853 H         1 UNK         0.0784 
     96 H96        22.2280    0.3396   -1.2869 H         1 UNK         0.0793 
     97 H97        23.1621   -1.1172   -0.9745 H         1 UNK         0.0793 
     98 H98        23.6013    0.4042   -0.1958 H         1 UNK         0.0793 
     99 H99        25.6300   -0.6995   -1.1635 H         1 UNK         0.3024 
    100 H100       28.4618   -0.9250   -3.2745 H         1 UNK         0.1171 
    101 H101       28.9055    1.1697   -2.0114 H         1 UNK         0.0786 
    102 H102       29.6175   -0.1917   -1.1626 H         1 UNK         0.0786 
    103 H103       28.1145    0.5165   -0.5827 H         1 UNK         0.0786 
    104 H104       28.1698   -2.0969   -0.7963 H         1 UNK         0.2977 
    105 H105       27.1341    0.2491   -5.7187 H         1 UNK         0.3127 
    106 H106       29.3207    1.5892   -7.0338 H         1 UNK         0.0770 
    107 H107       27.4536    2.7057   -4.8895 H         1 UNK         0.0814 
    108 H108       29.0265    3.3323   -5.3502 H         1 UNK         0.0814 
    109 H109       28.9158    1.7624   -4.5733 H         1 UNK         0.0814 
    110 H110       25.8980    1.6710   -7.5583 H         1 UNK         0.2983 
    111 H111       25.6585    4.1694   -8.9363 H         1 UNK         0.0947 
    112 H112       23.5835    3.1173   -9.8610 H         1 UNK         0.0806 
    113 H113       23.6935    2.8732   -8.1258 H         1 UNK         0.0806 
    114 H114       24.0785    1.5526   -9.2288 H         1 UNK         0.0806 
    115 H115       27.1413    1.1299   -9.8513 H         1 UNK         0.3000 
    116 H116       27.3417    1.8880  -12.7185 H         1 UNK         0.0850 
    117 H117       28.2252   -0.3929  -12.9963 H         1 UNK         0.0810 
    118 H118       26.7064   -0.4746  -12.1215 H         1 UNK         0.0810 
    119 H119       28.2345   -0.6584  -11.2607 H         1 UNK         0.0810 
    120 H120       28.8536    2.8721  -10.0031 H         1 UNK         0.3040 
    121 H121       30.7515    3.7653   -9.4193 H         1 UNK         0.0766 
    122 H122       32.2770    4.7272  -11.0794 H         1 UNK         0.0812 
    123 H123       30.6257    4.9486  -11.6294 H         1 UNK         0.0812 
    124 H124       31.6384    3.6961  -12.3482 H         1 UNK         0.0812 
    125 H125       30.5171    0.7733   -9.5463 H         1 UNK         0.3205 
    126 H126       33.3431   -0.1129   -9.6474 H         1 UNK         0.0754 
    127 H127       32.3183   -2.3469   -9.1851 H         1 UNK         0.0769 
    128 H128       31.5646   -1.6035  -10.5874 H         1 UNK         0.0769 
    129 H129       30.7283   -1.6098   -9.0362 H         1 UNK         0.0769 
    130 H130       34.4564   -0.7583   -7.7953 H         1 UNK         0.2981 
    131 H131       33.4257   -1.4390   -5.3674 H         1 UNK         0.0541 
    132 H132       35.1346   -2.3421   -3.9915 H         1 UNK         0.3459 
    133 H133       36.7302   -2.5582   -4.6666 H         1 UNK         0.3459 
    134 H134       33.0377    1.1087   -5.0230 H         1 UNK         0.0612 
    135 H135       34.7538    1.3216   -5.1287 H         1 UNK         0.0612 
    136 H136       31.8190    1.0471   -2.9289 H         1 UNK         0.0624 
    137 H137       32.3578    0.3736   -1.4125 H         1 UNK         0.0624 
@<TRIPOS>BOND
     1    1    2 1    
     2    1   72 1    
     3    1   73 1    
     4    1   74 1    
     5    2    3 2    
     6    2    4 am   BACKBONE|DICT|INTERRES
     7    4    5 1    
     8    4   75 1    
     9    5    6 1    
    10    5   35 1    
    11    5   76 1    
    12    6    7 1    
    13    6   77 1    
    14    6   78 1    
    15    7    8 1    
    16    8    9 1    
    17    8   79 1    
    18    8   80 1    
    19    9   10 ar   
    20    9   14 ar   
    21   10   11 ar   
    22   10   81 1    
    23   11   12 ar   
    24   11   71 1    
    25   12   13 ar   
    26   12   82 1    
    27   13   14 ar   
    28   13   15 1    
    29   14   83 1    
    30   15   16 1    
    31   15   84 1    
    32   15   85 1    
    33   16   17 1    
    34   17   18 1    
    35   17   86 1    
    36   17   87 1    
    37   18   19 1    
    38   18   37 1    
    39   18   88 1    
    40   19   20 am   BACKBONE|DICT|INTERRES
    41   19   89 1    
    42   20   21 2    
    43   20   22 1    
    44   22   23 1    
    45   22   24 1    
    46   22   90 1    
    47   23   91 1    
    48   23   92 1    
    49   23   93 1    
    50   24   25 am   BACKBONE|DICT|INTERRES
    51   24   94 1    
    52   25   26 2    
    53   25   27 1    
    54   27   28 1    
    55   27   29 1    
    56   27   95 1    
    57   28   96 1    
    58   28   97 1    
    59   28   98 1    
    60   29   30 am   BACKBONE|DICT|INTERRES
    61   29   99 1    
    62   30   31 2    
    63   30   32 1    
    64   32   33 1    
    65   32   34 1    
    66   32  100 1    
    67   33  101 1    
    68   33  102 1    
    69   33  103 1    
    70   34   35 am   BACKBONE|DICT|INTERRES
    71   34  104 1    
    72   35   36 2    
    73   37   38 2    
    74   37   39 am   BACKBONE|DICT|INTERRES
    75   39   40 1    
    76   39  105 1    
    77   40   41 1    
    78   40   42 1    
    79   40  106 1    
    80   41  107 1    
    81   41  108 1    
    82   41  109 1    
    83   42   43 2    
    84   42   44 am   BACKBONE|DICT|INTERRES
    85   44   45 1    
    86   44  110 1    
    87   45   46 1    
    88   45   47 1    
    89   45  111 1    
    90   46  112 1    
    91   46  113 1    
    92   46  114 1    
    93   47   48 2    
    94   47   49 am   BACKBONE|DICT|INTERRES
    95   49   50 1    
    96   49  115 1    
    97   50   51 1    
    98   50   52 1    
    99   50  116 1    
   100   51  117 1    
   101   51  118 1    
   102   51  119 1    
   103   52   53 2    
   104   52   54 am   BACKBONE|DICT|INTERRES
   105   54   55 1    
   106   54  120 1    
   107   55   56 1    
   108   55   57 1    
   109   55  121 1    
   110   56  122 1    
   111   56  123 1    
   112   56  124 1    
   113   57   58 2    
   114   57   59 am   BACKBONE|DICT|INTERRES
   115   59   60 1    
   116   59  125 1    
   117   60   61 1    
   118   60   62 1    
   119   60  126 1    
   120   61  127 1    
   121   61  128 1    
   122   61  129 1    
   123   62   63 2    
   124   62   64 am   BACKBONE|DICT|INTERRES
   125   64   65 1    
   126   64  130 1    
   127   65   66 1    
   128   65   69 1    
   129   65  131 1    
   130   66   67 am   BACKBONE|DICT|INTERRES
   131   66   68 2    
   132   67  132 1    
   133   67  133 1    
   134   69   70 1    
   135   69  134 1    
   136   69  135 1    
   137   70   71 1    
   138   71  136 1    
   139   71  137 1    
@<TRIPOS>SUBSTRUCTURE
     1 UNK         1 GROUP             0       ****    0 ROOT    
