@<TRIPOS>MOLECULE
3R137
137   139    1
SMALL
USER_CHARGES


@<TRIPOS>ATOM
      1 CA         28.5394   -1.1014    2.9212 C.3       0 UNK        -0.2020 
      2 C          28.0990   -0.3019    1.7043 C.2       0 UNK         0.4855 
      3 O          27.7055    0.8565    1.8420 O.2       0 UNK        -0.5197 
      4 N          28.1568   -0.9126    0.5134 N.am      1 UNK        -0.4892 
      5 CA         27.7897   -0.2869   -0.7672 C.3       1 UNK         0.0835 
      6 C6         28.4819   -0.9759   -1.9728 C.3       12 UNK        -0.0855 
      7 S7         30.3027   -0.9066   -1.8385 S.3       12 UNK        -0.2931 
      8 C8         30.7442   -2.6537   -1.5745 C.3       12 UNK         0.0378 
      9 C9         31.1607   -3.3214   -2.8765 C.ar      12 UNK        -0.0802 
     10 C10        32.5144   -3.3997   -3.2172 C.ar      12 UNK        -0.0944 
     11 C11        32.9133   -4.0215   -4.4027 C.ar      12 UNK        -0.0787 
     12 C12        31.9431   -4.5588   -5.2537 C.ar      12 UNK        -0.0862 
     13 C13        30.5827   -4.4555   -4.9498 C.ar      12 UNK        -0.0733 
     14 C14        30.2008   -3.8584   -3.7403 C.ar      12 UNK        -0.0832 
     15 C15        29.5684   -5.0031   -5.9565 C.3       12 UNK         0.0240 
     16 S16        27.9216   -4.2142   -5.9187 S.3       12 UNK        -0.2522 
     17 C17        28.3165   -2.4441   -6.1556 C.3       12 UNK        -0.0967 
     18 CA         27.4878   -1.7509   -7.2699 C.3       5 UNK         0.0660 
     19 N          26.0675   -2.1093   -7.1927 N.am      5 UNK        -0.4015 
     20 C          25.0473   -1.5915   -7.8918 C.2       4 UNK         0.4946 
     21 O          25.1847   -0.7811   -8.8081 O.2       4 UNK        -0.5353 
     22 CA         23.6254   -1.9944   -7.4526 C.3       4 UNK         0.0277 
     23 CB         23.0275   -3.0056   -8.4438 C.3       4 UNK        -0.1981 
     24 N          23.5300   -2.5378   -6.0884 N.am      4 UNK        -0.4209 
     25 C          23.9187   -1.9158   -4.9649 C.2       3 UNK         0.4942 
     26 O          24.4282   -0.7912   -4.9399 O.2       3 UNK        -0.5208 
     27 CA         23.7799   -2.7209   -3.6687 C.3       3 UNK         0.0250 
     28 CB         24.8131   -3.8652   -3.6212 C.3       3 UNK        -0.1990 
     29 N          23.9864   -1.8296   -2.5329 N.am      3 UNK        -0.4232 
     30 C          23.5911   -2.0511   -1.2760 C.2       2 UNK         0.4993 
     31 O          22.9584   -3.0495   -0.9257 O.2       2 UNK        -0.5286 
     32 CA         24.0151   -0.9978   -0.2349 C.3       2 UNK         0.0209 
     33 CB         23.4510   -1.2858    1.1697 C.3       2 UNK        -0.1931 
     34 N          25.4753   -0.9104   -0.1475 N.am      2 UNK        -0.4546 
     35 C          26.2615   -0.2153   -0.9817 C.2       1 UNK         0.5154 
     36 O          25.8153    0.4540   -1.9135 O.2       1 UNK        -0.5181 
     37 C          27.7238   -0.2262   -7.1962 C.2       5 UNK         0.5014 
     38 O          28.6084    0.2858   -7.8834 O.2       5 UNK        -0.5248 
     39 N          26.9074    0.4729   -6.3908 N.am      6 UNK        -0.4434 
     40 CA         26.9411    1.9235   -6.1988 C.3       6 UNK         0.0363 
     41 CB         25.9963    2.2978   -5.0472 C.3       6 UNK        -0.1936 
     42 C          26.6041    2.7482   -7.4549 C.2       6 UNK         0.5081 
     43 O          26.9769    3.9203   -7.5027 O.2       6 UNK        -0.5248 
     44 N          25.9293    2.1492   -8.4498 N.am      7 UNK        -0.4718 
     45 CA         25.6455    2.7931   -9.7373 C.3       7 UNK         0.0273 
     46 CB         24.5652    2.0030  -10.4926 C.3       7 UNK        -0.1935 
     47 C          26.9101    2.9481  -10.5995 C.2       7 UNK         0.5018 
     48 O          27.0523    3.9592  -11.2881 O.2       7 UNK        -0.5186 
     49 N          27.8095    1.9571  -10.5266 N.am      8 UNK        -0.4240 
     50 CA         29.1401    2.0008  -11.1368 C.3       8 UNK         0.0235 
     51 CB         29.5735    0.5741  -11.5056 C.3       8 UNK        -0.2000 
     52 C          30.1751    2.6574  -10.2078 C.2       8 UNK         0.4941 
     53 O          31.1599    3.2096  -10.7000 O.2       8 UNK        -0.5273 
     54 N          29.9515    2.5659   -8.8880 N.am      9 UNK        -0.4262 
     55 CA         30.7427    3.0827   -7.7639 C.3       9 UNK         0.0264 
     56 CB         30.9274    4.6104   -7.8385 C.3       9 UNK        -0.1955 
     57 C          32.0807    2.3540   -7.5692 C.2       9 UNK         0.5031 
     58 O          32.3816    1.9283   -6.4530 O.2       9 UNK        -0.5390 
     59 N          32.8421    2.1770   -8.6537 N.am      10 UNK        -0.4204 
     60 CA         34.0925    1.4205   -8.7084 C.3       10 UNK         0.0237 
     61 CB         34.9153    1.9134   -9.9138 C.3       10 UNK        -0.1985 
     62 C          33.8236   -0.0966   -8.7494 C.2       10 UNK         0.4970 
     63 O          34.1449   -0.7494   -9.7442 O.2       10 UNK        -0.4914 
     64 N          33.2240   -0.6197   -7.6713 N.am      11 UNK        -0.4285 
     65 CA         32.8659   -2.0358   -7.4779 C.3       11 UNK         0.1007 
     66 C          31.8238   -2.5747   -8.5046 C.2       11 UNK         0.5703 
     67 N          30.8680   -1.7624   -8.9367 N.am      11 UNK        -0.7361 
     68 O          31.8537   -3.7387   -8.8969 O.2       11 UNK        -0.4986 
     69 C69        34.1202   -2.9471   -7.3169 C.3       12 UNK        -0.0947 
     70 S70        34.9565   -2.6684   -5.7205 S.3       12 UNK        -0.2240 
     71 C71        34.3912   -4.1125   -4.7609 C.3       12 UNK         0.0194 
     72 H72        27.7171   -1.1885    3.6309 H         1 UNK         0.0906 
     73 H73        29.3676   -0.5986    3.4199 H         1 UNK         0.0906 
     74 H74        28.8653   -2.1065    2.6543 H         1 UNK         0.0906 
     75 H75        28.5028   -1.8596    0.4564 H         1 UNK         0.3140 
     76 H76        28.1333    0.7502   -0.7437 H         1 UNK         0.1085 
     77 H77        28.2087   -0.4768   -2.9051 H         1 UNK         0.0836 
     78 H78        28.1447   -2.0084   -2.0769 H         1 UNK         0.0836 
     79 H79        31.5656   -2.6967   -0.8575 H         1 UNK         0.0731 
     80 H80        29.9193   -3.1981   -1.1133 H         1 UNK         0.0731 
     81 H81        33.2604   -2.9771   -2.5577 H         1 UNK         0.1312 
     82 H82        32.2455   -5.0429   -6.1719 H         1 UNK         0.1406 
     83 H83        29.1558   -3.7936   -3.4733 H         1 UNK         0.1631 
     84 H84        29.4443   -6.0717   -5.7775 H         1 UNK         0.0717 
     85 H85        29.9615   -4.9031   -6.9697 H         1 UNK         0.0717 
     86 H86        28.1550   -1.9572   -5.1912 H         1 UNK         0.0934 
     87 H87        29.3814   -2.3333   -6.3690 H         1 UNK         0.0934 
     88 H88        27.8488   -2.0956   -8.2405 H         1 UNK         0.0739 
     89 H89        25.8450   -2.7930   -6.4848 H         1 UNK         0.3093 
     90 H90        23.0191   -1.0867   -7.4814 H         1 UNK         0.0818 
     91 H91        23.0580   -2.6180   -9.4634 H         1 UNK         0.0819 
     92 H92        23.5747   -3.9492   -8.4380 H         1 UNK         0.0819 
     93 H93        21.9835   -3.2193   -8.2139 H         1 UNK         0.0819 
     94 H94        23.1330   -3.4635   -6.0079 H         1 UNK         0.3041 
     95 H95        22.7680   -3.1295   -3.6257 H         1 UNK         0.0784 
     96 H96        24.6990   -4.5459   -4.4655 H         1 UNK         0.0793 
     97 H97        25.8348   -3.4836   -3.6435 H         1 UNK         0.0793 
     98 H98        24.7034   -4.4627   -2.7160 H         1 UNK         0.0793 
     99 H99        24.4826   -0.9693   -2.7541 H         1 UNK         0.3024 
    100 H100       23.6146   -0.0360   -0.5644 H         1 UNK         0.1171 
    101 H101       23.8127   -2.2358    1.5653 H         1 UNK         0.0786 
    102 H102       23.7270   -0.5020    1.8754 H         1 UNK         0.0786 
    103 H103       22.3613   -1.3333    1.1506 H         1 UNK         0.0786 
    104 H104       25.9218   -1.4545    0.5762 H         1 UNK         0.2977 
    105 H105       26.1768   -0.0235   -5.8899 H         1 UNK         0.3127 
    106 H106       27.9574    2.1907   -5.9032 H         1 UNK         0.0770 
    107 H107       26.2949    1.8110   -4.1196 H         1 UNK         0.0814 
    108 H108       26.0051    3.3730   -4.8634 H         1 UNK         0.0814 
    109 H109       24.9661    2.0096   -5.2602 H         1 UNK         0.0814 
    110 H110       25.6610    1.1741   -8.3573 H         1 UNK         0.2983 
    111 H111       25.2551    3.7940   -9.5388 H         1 UNK         0.0947 
    112 H112       24.9095    1.0056  -10.7678 H         1 UNK         0.0806 
    113 H113       24.2841    2.5142  -11.4142 H         1 UNK         0.0806 
    114 H114       23.6610    1.8922   -9.8938 H         1 UNK         0.0806 
    115 H115       27.6071    1.1711   -9.9234 H         1 UNK         0.3000 
    116 H116       29.1021    2.5911  -12.0551 H         1 UNK         0.0850 
    117 H117       30.5847    0.5620  -11.9152 H         1 UNK         0.0810 
    118 H118       28.9134    0.1440  -12.2589 H         1 UNK         0.0810 
    119 H119       29.5619   -0.0841  -10.6383 H         1 UNK         0.0810 
    120 H120       29.1911    1.9558   -8.6014 H         1 UNK         0.3040 
    121 H121       30.1462    2.8741   -6.8746 H         1 UNK         0.0766 
    122 H122       31.4248    4.9844   -6.9428 H         1 UNK         0.0812 
    123 H123       29.9658    5.1189   -7.9120 H         1 UNK         0.0812 
    124 H124       31.5328    4.9120   -8.6935 H         1 UNK         0.0812 
    125 H125       32.4775    2.5391   -9.5327 H         1 UNK         0.3205 
    126 H126       34.6707    1.6252   -7.8047 H         1 UNK         0.0754 
    127 H127       35.8673    1.3850   -9.9804 H         1 UNK         0.0769 
    128 H128       35.1416    2.9766   -9.8302 H         1 UNK         0.0769 
    129 H129       34.3866    1.7573  -10.8553 H         1 UNK         0.0769 
    130 H130       32.9614    0.0161   -6.9256 H         1 UNK         0.2981 
    131 H131       32.3223   -2.0624   -6.5335 H         1 UNK         0.0541 
    132 H132       30.7900   -0.8180   -8.5944 H         1 UNK         0.3459 
    133 H133       30.2005   -2.1170   -9.6011 H         1 UNK         0.3459 
    134 H134       34.8360   -2.7718   -8.1204 H         1 UNK         0.0612 
    135 H135       33.8687   -4.0049   -7.3878 H         1 UNK         0.0612 
    136 H136       34.9871   -4.1785   -3.8494 H         1 UNK         0.0624 
    137 H137       34.5935   -5.0277   -5.3194 H         1 UNK         0.0624 
@<TRIPOS>BOND
     1    1    2 1    
     2    1   72 1    
     3    1   73 1    
     4    1   74 1    
     5    2    3 2    
     6    2    4 am   BACKBONE|DICT|INTERRES
     7    4    5 1    
     8    4   75 1    
     9    5    6 1    
    10    5   35 1    
    11    5   76 1    
    12    6    7 1    
    13    6   77 1    
    14    6   78 1    
    15    7    8 1    
    16    8    9 1    
    17    8   79 1    
    18    8   80 1    
    19    9   10 ar   
    20    9   14 ar   
    21   10   11 ar   
    22   10   81 1    
    23   11   12 ar   
    24   11   71 1    
    25   12   13 ar   
    26   12   82 1    
    27   13   14 ar   
    28   13   15 1    
    29   14   83 1    
    30   15   16 1    
    31   15   84 1    
    32   15   85 1    
    33   16   17 1    
    34   17   18 1    
    35   17   86 1    
    36   17   87 1    
    37   18   19 1    
    38   18   37 1    
    39   18   88 1    
    40   19   20 am   BACKBONE|DICT|INTERRES
    41   19   89 1    
    42   20   21 2    
    43   20   22 1    
    44   22   23 1    
    45   22   24 1    
    46   22   90 1    
    47   23   91 1    
    48   23   92 1    
    49   23   93 1    
    50   24   25 am   BACKBONE|DICT|INTERRES
    51   24   94 1    
    52   25   26 2    
    53   25   27 1    
    54   27   28 1    
    55   27   29 1    
    56   27   95 1    
    57   28   96 1    
    58   28   97 1    
    59   28   98 1    
    60   29   30 am   BACKBONE|DICT|INTERRES
    61   29   99 1    
    62   30   31 2    
    63   30   32 1    
    64   32   33 1    
    65   32   34 1    
    66   32  100 1    
    67   33  101 1    
    68   33  102 1    
    69   33  103 1    
    70   34   35 am   BACKBONE|DICT|INTERRES
    71   34  104 1    
    72   35   36 2    
    73   37   38 2    
    74   37   39 am   BACKBONE|DICT|INTERRES
    75   39   40 1    
    76   39  105 1    
    77   40   41 1    
    78   40   42 1    
    79   40  106 1    
    80   41  107 1    
    81   41  108 1    
    82   41  109 1    
    83   42   43 2    
    84   42   44 am   BACKBONE|DICT|INTERRES
    85   44   45 1    
    86   44  110 1    
    87   45   46 1    
    88   45   47 1    
    89   45  111 1    
    90   46  112 1    
    91   46  113 1    
    92   46  114 1    
    93   47   48 2    
    94   47   49 am   BACKBONE|DICT|INTERRES
    95   49   50 1    
    96   49  115 1    
    97   50   51 1    
    98   50   52 1    
    99   50  116 1    
   100   51  117 1    
   101   51  118 1    
   102   51  119 1    
   103   52   53 2    
   104   52   54 am   BACKBONE|DICT|INTERRES
   105   54   55 1    
   106   54  120 1    
   107   55   56 1    
   108   55   57 1    
   109   55  121 1    
   110   56  122 1    
   111   56  123 1    
   112   56  124 1    
   113   57   58 2    
   114   57   59 am   BACKBONE|DICT|INTERRES
   115   59   60 1    
   116   59  125 1    
   117   60   61 1    
   118   60   62 1    
   119   60  126 1    
   120   61  127 1    
   121   61  128 1    
   122   61  129 1    
   123   62   63 2    
   124   62   64 am   BACKBONE|DICT|INTERRES
   125   64   65 1    
   126   64  130 1    
   127   65   66 1    
   128   65   69 1    
   129   65  131 1    
   130   66   67 am   BACKBONE|DICT|INTERRES
   131   66   68 2    
   132   67  132 1    
   133   67  133 1    
   134   69   70 1    
   135   69  134 1    
   136   69  135 1    
   137   70   71 1    
   138   71  136 1    
   139   71  137 1    
@<TRIPOS>SUBSTRUCTURE
     1 UNK         1 GROUP             0       ****    0 ROOT    
