@<TRIPOS>MOLECULE
3R137
137   139    1
SMALL
USER_CHARGES


@<TRIPOS>ATOM
      1 CA         26.7949   -5.8459    1.5507 C.3       0 UNK        -0.2020 
      2 C          26.9425   -4.7768    0.4790 C.2       0 UNK         0.4855 
      3 O          26.7492   -3.5939    0.7610 O.2       0 UNK        -0.5197 
      4 N          27.2696   -5.1804   -0.7547 N.am      1 UNK        -0.4892 
      5 CA         27.4911   -4.3110   -1.9196 C.3       1 UNK         0.0835 
      6 C6         28.4443   -4.9832   -2.9454 C.3       12 UNK        -0.0855 
      7 S7         30.0852   -5.3621   -2.2347 S.3       12 UNK        -0.2931 
      8 C8         31.2196   -4.4578   -3.3524 C.3       12 UNK         0.0378 
      9 C9         31.0937   -2.9319   -3.3464 C.ar      12 UNK        -0.0802 
     10 C10        31.6026   -2.2120   -4.4325 C.ar      12 UNK        -0.0944 
     11 C11        31.5219   -0.8160   -4.4717 C.ar      12 UNK        -0.0787 
     12 C12        30.9135   -0.1335   -3.4159 C.ar      12 UNK        -0.0862 
     13 C13        30.3811   -0.8370   -2.3328 C.ar      12 UNK        -0.0733 
     14 C14        30.5057   -2.2282   -2.2884 C.ar      12 UNK        -0.0832 
     15 C15        29.6513   -0.1117   -1.2129 C.3       12 UNK         0.0240 
     16 S16        27.8512   -0.3594   -1.3560 S.3       12 UNK        -0.2522 
     17 C17        27.2893    1.1897   -2.1409 C.3       12 UNK        -0.0967 
     18 CA         27.5774    1.2883   -3.6601 C.3       5 UNK         0.0660 
     19 N          27.0974    0.1322   -4.4234 N.am      5 UNK        -0.4015 
     20 C          27.5104   -0.1574   -5.6678 C.2       4 UNK         0.4946 
     21 O          28.3662    0.4901   -6.2678 O.2       4 UNK        -0.5353 
     22 CA         26.8397   -1.3289   -6.4043 C.3       4 UNK         0.0277 
     23 CB         27.7012   -2.5909   -6.2820 C.3       4 UNK        -0.1981 
     24 N          25.4767   -1.6049   -5.9465 N.am      4 UNK        -0.4209 
     25 C          24.4549   -0.7447   -6.0758 C.2       3 UNK         0.4942 
     26 O          24.5554    0.3488   -6.6330 O.2       3 UNK        -0.5208 
     27 CA         23.1142   -1.1271   -5.4258 C.3       3 UNK         0.0250 
     28 CB         22.1885   -1.7859   -6.4602 C.3       3 UNK        -0.1990 
     29 N          23.2341   -1.9995   -4.2522 N.am      3 UNK        -0.4232 
     30 C          23.9447   -1.7298   -3.1471 C.2       2 UNK         0.4993 
     31 O          24.6162   -0.7065   -3.0034 O.2       2 UNK        -0.5286 
     32 CA         23.9319   -2.7778   -2.0190 C.3       2 UNK         0.0209 
     33 CB         22.9762   -3.9693   -2.2614 C.3       2 UNK        -0.1931 
     34 N          25.2814   -3.2641   -1.7154 N.am      2 UNK        -0.4546 
     35 C          26.1526   -3.8534   -2.5476 C.2       1 UNK         0.5154 
     36 O          25.9223   -4.0578   -3.7420 O.2       1 UNK        -0.5181 
     37 C          27.0314    2.6151   -4.2248 C.2       5 UNK         0.5014 
     38 O          27.7168    3.6342   -4.1293 O.2       5 UNK        -0.5248 
     39 N          25.8200    2.5848   -4.7991 N.am      6 UNK        -0.4434 
     40 CA         25.1925    3.7302   -5.4556 C.3       6 UNK         0.0363 
     41 CB         23.6627    3.5807   -5.4046 C.3       6 UNK        -0.1936 
     42 C          25.6796    3.8802   -6.9043 C.2       6 UNK         0.5081 
     43 O          26.0001    4.9928   -7.3225 O.2       6 UNK        -0.5248 
     44 N          25.7162    2.7641   -7.6459 N.am      7 UNK        -0.4718 
     45 CA         26.0931    2.7259   -9.0605 C.3       7 UNK         0.0273 
     46 CB         25.6180    1.3982   -9.6739 C.3       7 UNK        -0.1935 
     47 C          27.5981    2.9177   -9.3081 C.2       7 UNK         0.5018 
     48 O          27.9632    3.4712  -10.3450 O.2       7 UNK        -0.5186 
     49 N          28.4363    2.4181   -8.3857 N.am      8 UNK        -0.4240 
     50 CA         29.9067    2.3765   -8.4237 C.3       8 UNK         0.0235 
     51 CB         30.5105    3.7950   -8.4691 C.3       8 UNK        -0.2000 
     52 C          30.4963    1.4637   -9.5184 C.2       8 UNK         0.4941 
     53 O          31.7171    1.4306   -9.6742 O.2       8 UNK        -0.5273 
     54 N          29.6502    0.7101  -10.2363 N.am      9 UNK        -0.4262 
     55 CA         30.0104   -0.1344  -11.3818 C.3       9 UNK         0.0264 
     56 CB         28.7279   -0.7171  -11.9976 C.3       9 UNK        -0.1955 
     57 C          31.0119   -1.2580  -11.0608 C.2       9 UNK         0.5031 
     58 O          31.7911   -1.6405  -11.9343 O.2       9 UNK        -0.5390 
     59 N          30.9858   -1.7504   -9.8159 N.am      10 UNK        -0.4204 
     60 CA         31.9253   -2.7452   -9.2948 C.3       10 UNK         0.0237 
     61 CB         31.2741   -3.4594   -8.0986 C.3       10 UNK        -0.1985 
     62 C          33.2927   -2.1524   -8.8982 C.2       10 UNK         0.4970 
     63 O          34.2342   -2.9234   -8.7079 O.2       10 UNK        -0.4914 
     64 N          33.3796   -0.8229   -8.7620 N.am      11 UNK        -0.4285 
     65 CA         34.5840   -0.0862   -8.3532 C.3       11 UNK         0.1007 
     66 C          35.2185    0.6903   -9.5367 C.2       11 UNK         0.5703 
     67 N          34.4343    1.2631  -10.4414 N.am      11 UNK        -0.7361 
     68 O          36.4406    0.7634   -9.6416 O.2       11 UNK        -0.4986 
     69 C69        34.2824    0.8686   -7.1684 C.3       12 UNK        -0.0947 
     70 S70        33.8988   -0.0350   -5.6320 S.3       12 UNK        -0.2240 
     71 C71        32.0805   -0.0479   -5.6595 C.3       12 UNK         0.0194 
     72 H72        25.7823   -5.8365    1.9530 H         1 UNK         0.0906 
     73 H73        26.9970   -6.8440    1.1626 H         1 UNK         0.0906 
     74 H74        27.4885   -5.6539    2.3689 H         1 UNK         0.0906 
     75 H75        27.4022   -6.1668   -0.9286 H         1 UNK         0.3140 
     76 H76        27.9713   -3.3960   -1.5720 H         1 UNK         0.1085 
     77 H77        28.5882   -4.3421   -3.8131 H         1 UNK         0.0836 
     78 H78        28.0086   -5.9090   -3.3254 H         1 UNK         0.0836 
     79 H79        31.0689   -4.8334   -4.3660 H         1 UNK         0.0731 
     80 H80        32.2437   -4.7153   -3.0793 H         1 UNK         0.0731 
     81 H81        32.0818   -2.7384   -5.2461 H         1 UNK         0.1312 
     82 H82        30.8480    0.9450   -3.4438 H         1 UNK         0.1406 
     83 H83        30.1265   -2.7560   -1.4260 H         1 UNK         0.1631 
     84 H84        29.8921    0.9523   -1.2088 H         1 UNK         0.0717 
     85 H85        29.9849   -0.5043   -0.2512 H         1 UNK         0.0717 
     86 H86        26.2159    1.2691   -1.9571 H         1 UNK         0.0934 
     87 H87        27.7426    2.0296   -1.6107 H         1 UNK         0.0934 
     88 H88        28.6575    1.3338   -3.7867 H         1 UNK         0.0739 
     89 H89        26.3633   -0.4162   -3.9861 H         1 UNK         0.3093 
     90 H90        26.7828   -1.0610   -7.4609 H         1 UNK         0.0818 
     91 H91        28.6924   -2.4269   -6.7045 H         1 UNK         0.0819 
     92 H92        27.8373   -2.8666   -5.2391 H         1 UNK         0.0819 
     93 H93        27.2568   -3.4378   -6.8049 H         1 UNK         0.0819 
     94 H94        25.3283   -2.4689   -5.4395 H         1 UNK         0.3041 
     95 H95        22.6467   -0.1988   -5.0910 H         1 UNK         0.0784 
     96 H96        22.0639   -1.1463   -7.3355 H         1 UNK         0.0793 
     97 H97        22.5857   -2.7404   -6.8080 H         1 UNK         0.0793 
     98 H98        21.1947   -1.9639   -6.0488 H         1 UNK         0.0793 
     99 H99        22.7338   -2.8759   -4.2891 H         1 UNK         0.3024 
    100 H100       23.5851   -2.2504   -1.1288 H         1 UNK         0.1171 
    101 H101       22.9680   -4.6396   -1.4017 H         1 UNK         0.0786 
    102 H102       21.9489   -3.6320   -2.4063 H         1 UNK         0.0786 
    103 H103       23.2627   -4.5611   -3.1316 H         1 UNK         0.0786 
    104 H104       25.5971   -3.1316   -0.7580 H         1 UNK         0.2977 
    105 H105       25.3371    1.6993   -4.8708 H         1 UNK         0.3127 
    106 H106       25.4569    4.6422   -4.9154 H         1 UNK         0.0770 
    107 H107       23.3209    2.6853   -5.9251 H         1 UNK         0.0814 
    108 H108       23.1735    4.4355   -5.8734 H         1 UNK         0.0814 
    109 H109       23.3046    3.5271   -4.3764 H         1 UNK         0.0814 
    110 H110       25.3808    1.8931   -7.2382 H         1 UNK         0.2983 
    111 H111       25.5734    3.5398   -9.5713 H         1 UNK         0.0947 
    112 H112       25.8562    1.3492  -10.7375 H         1 UNK         0.0806 
    113 H113       24.5378    1.2841   -9.5794 H         1 UNK         0.0806 
    114 H114       26.0849    0.5388   -9.1924 H         1 UNK         0.0806 
    115 H115       28.0367    1.9369   -7.5847 H         1 UNK         0.3000 
    116 H116       30.2130    1.9295   -7.4776 H         1 UNK         0.0850 
    117 H117       31.5928    3.7630   -8.3370 H         1 UNK         0.0810 
    118 H118       30.1068    4.4225   -7.6745 H         1 UNK         0.0810 
    119 H119       30.3170    4.2901   -9.4208 H         1 UNK         0.0810 
    120 H120       28.6660    0.8010  -10.0356 H         1 UNK         0.3040 
    121 H121       30.4823    0.5130  -12.1238 H         1 UNK         0.0766 
    122 H122       28.0523    0.0718  -12.3295 H         1 UNK         0.0812 
    123 H123       28.1882   -1.3469  -11.2893 H         1 UNK         0.0812 
    124 H124       28.9576   -1.3309  -12.8699 H         1 UNK         0.0812 
    125 H125       30.3017   -1.3806   -9.1725 H         1 UNK         0.3205 
    126 H126       32.1122   -3.4905  -10.0710 H         1 UNK         0.0754 
    127 H127       31.9476   -4.2011   -7.6667 H         1 UNK         0.0769 
    128 H128       30.3667   -3.9846   -8.3976 H         1 UNK         0.0769 
    129 H129       31.0088   -2.7580   -7.3089 H         1 UNK         0.0769 
    130 H130       32.5902   -0.2425   -9.0189 H         1 UNK         0.2981 
    131 H131       35.3455   -0.7910   -8.0137 H         1 UNK         0.0541 
    132 H132       34.8493    1.7595  -11.2130 H         1 UNK         0.3459 
    133 H133       33.4264    1.2828  -10.3066 H         1 UNK         0.3459 
    134 H134       35.1490    1.4973   -6.9555 H         1 UNK         0.0612 
    135 H135       33.4656    1.5509   -7.4120 H         1 UNK         0.0612 
    136 H136       31.7234   -0.5026   -6.5830 H         1 UNK         0.0624 
    137 H137       31.7147    0.9800   -5.6602 H         1 UNK         0.0624 
@<TRIPOS>BOND
     1    1    2 1    
     2    1   72 1    
     3    1   73 1    
     4    1   74 1    
     5    2    3 2    
     6    2    4 am   BACKBONE|DICT|INTERRES
     7    4    5 1    
     8    4   75 1    
     9    5    6 1    
    10    5   35 1    
    11    5   76 1    
    12    6    7 1    
    13    6   77 1    
    14    6   78 1    
    15    7    8 1    
    16    8    9 1    
    17    8   79 1    
    18    8   80 1    
    19    9   10 ar   
    20    9   14 ar   
    21   10   11 ar   
    22   10   81 1    
    23   11   12 ar   
    24   11   71 1    
    25   12   13 ar   
    26   12   82 1    
    27   13   14 ar   
    28   13   15 1    
    29   14   83 1    
    30   15   16 1    
    31   15   84 1    
    32   15   85 1    
    33   16   17 1    
    34   17   18 1    
    35   17   86 1    
    36   17   87 1    
    37   18   19 1    
    38   18   37 1    
    39   18   88 1    
    40   19   20 am   BACKBONE|DICT|INTERRES
    41   19   89 1    
    42   20   21 2    
    43   20   22 1    
    44   22   23 1    
    45   22   24 1    
    46   22   90 1    
    47   23   91 1    
    48   23   92 1    
    49   23   93 1    
    50   24   25 am   BACKBONE|DICT|INTERRES
    51   24   94 1    
    52   25   26 2    
    53   25   27 1    
    54   27   28 1    
    55   27   29 1    
    56   27   95 1    
    57   28   96 1    
    58   28   97 1    
    59   28   98 1    
    60   29   30 am   BACKBONE|DICT|INTERRES
    61   29   99 1    
    62   30   31 2    
    63   30   32 1    
    64   32   33 1    
    65   32   34 1    
    66   32  100 1    
    67   33  101 1    
    68   33  102 1    
    69   33  103 1    
    70   34   35 am   BACKBONE|DICT|INTERRES
    71   34  104 1    
    72   35   36 2    
    73   37   38 2    
    74   37   39 am   BACKBONE|DICT|INTERRES
    75   39   40 1    
    76   39  105 1    
    77   40   41 1    
    78   40   42 1    
    79   40  106 1    
    80   41  107 1    
    81   41  108 1    
    82   41  109 1    
    83   42   43 2    
    84   42   44 am   BACKBONE|DICT|INTERRES
    85   44   45 1    
    86   44  110 1    
    87   45   46 1    
    88   45   47 1    
    89   45  111 1    
    90   46  112 1    
    91   46  113 1    
    92   46  114 1    
    93   47   48 2    
    94   47   49 am   BACKBONE|DICT|INTERRES
    95   49   50 1    
    96   49  115 1    
    97   50   51 1    
    98   50   52 1    
    99   50  116 1    
   100   51  117 1    
   101   51  118 1    
   102   51  119 1    
   103   52   53 2    
   104   52   54 am   BACKBONE|DICT|INTERRES
   105   54   55 1    
   106   54  120 1    
   107   55   56 1    
   108   55   57 1    
   109   55  121 1    
   110   56  122 1    
   111   56  123 1    
   112   56  124 1    
   113   57   58 2    
   114   57   59 am   BACKBONE|DICT|INTERRES
   115   59   60 1    
   116   59  125 1    
   117   60   61 1    
   118   60   62 1    
   119   60  126 1    
   120   61  127 1    
   121   61  128 1    
   122   61  129 1    
   123   62   63 2    
   124   62   64 am   BACKBONE|DICT|INTERRES
   125   64   65 1    
   126   64  130 1    
   127   65   66 1    
   128   65   69 1    
   129   65  131 1    
   130   66   67 am   BACKBONE|DICT|INTERRES
   131   66   68 2    
   132   67  132 1    
   133   67  133 1    
   134   69   70 1    
   135   69  134 1    
   136   69  135 1    
   137   70   71 1    
   138   71  136 1    
   139   71  137 1    
@<TRIPOS>SUBSTRUCTURE
     1 UNK         1 GROUP             0       ****    0 ROOT    
