@<TRIPOS>MOLECULE
3R137
137   139    1
SMALL
USER_CHARGES


@<TRIPOS>ATOM
      1 CA         26.5924   -7.3453   -0.9726 C.3       0 UNK        -0.2020 
      2 C          26.7969   -5.8402   -0.8914 C.2       0 UNK         0.4855 
      3 O          26.9610   -5.1997   -1.9284 O.2       0 UNK        -0.5197 
      4 N          26.7603   -5.2863    0.3309 N.am      1 UNK        -0.4892 
      5 CA         26.9759   -3.8895    0.7671 C.3       1 UNK         0.0835 
      6 C6         28.4695   -3.4912    0.9701 C.3       12 UNK        -0.0855 
      7 S7         29.6127   -3.8399   -0.4073 S.3       12 UNK        -0.2931 
      8 C8         29.4444   -2.3182   -1.3835 C.3       12 UNK         0.0378 
      9 C9         30.1409   -2.4375   -2.7286 C.ar      12 UNK        -0.0802 
     10 C10        31.2169   -1.6048   -3.0481 C.ar      12 UNK        -0.0944 
     11 C11        31.8098   -1.6607   -4.3127 C.ar      12 UNK        -0.0787 
     12 C12        31.3074   -2.5699   -5.2542 C.ar      12 UNK        -0.0862 
     13 C13        30.2124   -3.3894   -4.9633 C.ar      12 UNK        -0.0733 
     14 C14        29.6649   -3.3468   -3.6773 C.ar      12 UNK        -0.0832 
     15 C15        29.6632   -4.2831   -6.0793 C.3       12 UNK         0.0240 
     16 S16        27.9324   -4.8745   -5.9301 S.3       12 UNK        -0.2522 
     17 C17        26.9122   -3.4230   -5.4847 C.3       12 UNK        -0.0967 
     18 CA         26.6470   -2.3825   -6.6018 C.3       5 UNK         0.0660 
     19 N          25.4417   -1.6028   -6.3046 N.am      5 UNK        -0.4015 
     20 C          24.8694   -0.7012   -7.1158 C.2       4 UNK         0.4946 
     21 O          25.2435   -0.4690   -8.2645 O.2       4 UNK        -0.5353 
     22 CA         23.7069    0.1150   -6.5242 C.3       4 UNK         0.0277 
     23 CB         22.3768   -0.6353   -6.6978 C.3       4 UNK        -0.1981 
     24 N          23.9026    0.4501   -5.1097 N.am      4 UNK        -0.4209 
     25 C          24.8896    1.2295   -4.6408 C.2       3 UNK         0.4942 
     26 O          25.7156    1.7881   -5.3593 O.2       3 UNK        -0.5208 
     27 CA         25.0030    1.3797   -3.1140 C.3       3 UNK         0.0250 
     28 CB         24.1971    2.5957   -2.6308 C.3       3 UNK        -0.1990 
     29 N          24.5757    0.1824   -2.3828 N.am      3 UNK        -0.4232 
     30 C          25.2031   -1.0004   -2.4375 C.2       2 UNK         0.4993 
     31 O          26.2189   -1.2056   -3.1058 O.2       2 UNK        -0.5286 
     32 CA         24.5223   -2.1621   -1.6991 C.3       2 UNK         0.0209 
     33 CB         23.6786   -2.9934   -2.6797 C.3       2 UNK        -0.1931 
     34 N          25.4821   -3.0445   -1.0372 N.am      2 UNK        -0.4546 
     35 C          26.1209   -2.7759    0.1058 C.2       1 UNK         0.5154 
     36 O          25.9991   -1.6995    0.6941 O.2       1 UNK        -0.5181 
     37 C          27.8479   -1.4398   -6.7999 C.2       5 UNK         0.5014 
     38 O          28.5063   -1.5015   -7.8386 O.2       5 UNK        -0.5248 
     39 N          28.0690   -0.5529   -5.8177 N.am      6 UNK        -0.4434 
     40 CA         29.1361    0.4482   -5.8208 C.3       6 UNK         0.0363 
     41 CB         29.1611    1.1682   -4.4643 C.3       6 UNK        -0.1936 
     42 C          29.0260    1.4506   -6.9810 C.2       6 UNK         0.5081 
     43 O          30.0469    1.8089   -7.5687 O.2       6 UNK        -0.5248 
     44 N          27.7963    1.8666   -7.3112 N.am      7 UNK        -0.4718 
     45 CA         27.4888    2.7179   -8.4602 C.3       7 UNK         0.0273 
     46 CB         26.0282    3.1897   -8.3847 C.3       7 UNK        -0.1935 
     47 C          27.7726    2.0211   -9.8002 C.2       7 UNK         0.5018 
     48 O          28.4290    2.6165  -10.6546 O.2       7 UNK        -0.5186 
     49 N          27.3034    0.7731   -9.9532 N.am      8 UNK        -0.4240 
     50 CA         27.5061   -0.0481  -11.1518 C.3       8 UNK         0.0235 
     51 CB         26.6521   -1.3229  -11.0613 C.3       8 UNK        -0.2000 
     52 C          28.9811   -0.4027  -11.3994 C.2       8 UNK         0.4941 
     53 O          29.4346   -0.3398  -12.5427 O.2       8 UNK        -0.5273 
     54 N          29.7054   -0.7471  -10.3269 N.am      9 UNK        -0.4262 
     55 CA         31.1384   -1.0495  -10.3530 C.3       9 UNK         0.0264 
     56 CB         31.4784   -1.9104   -9.1282 C.3       9 UNK        -0.1955 
     57 C          32.0401    0.2002  -10.4246 C.2       9 UNK         0.5031 
     58 O          33.2383    0.0475  -10.6678 O.2       9 UNK        -0.5390 
     59 N          31.4618    1.3955  -10.2274 N.am      10 UNK        -0.4204 
     60 CA         32.0998    2.7176  -10.2293 C.3       10 UNK         0.0237 
     61 CB         32.6364    3.0715  -11.6330 C.3       10 UNK        -0.1985 
     62 C          33.1540    2.8675   -9.1150 C.2       10 UNK         0.4970 
     63 O          34.2821    3.2907   -9.3769 O.2       10 UNK        -0.4914 
     64 N          32.7532    2.5171   -7.8902 N.am      11 UNK        -0.4285 
     65 CA         33.5738    2.5420   -6.6687 C.3       11 UNK         0.1007 
     66 C          32.8416    3.1530   -5.4401 C.2       11 UNK         0.5703 
     67 N          31.6436    3.7071   -5.5866 N.am      11 UNK        -0.7361 
     68 O          33.3834    3.1598   -4.3373 O.2       11 UNK        -0.4986 
     69 C69        34.2317    1.1630   -6.3780 C.3       12 UNK        -0.0947 
     70 S70        33.0424   -0.2181   -6.3870 S.3       12 UNK        -0.2240 
     71 C71        32.9714   -0.7169   -4.6348 C.3       12 UNK         0.0194 
     72 H72        27.4589   -7.8141   -1.4383 H         1 UNK         0.0906 
     73 H73        26.4514   -7.7947    0.0101 H         1 UNK         0.0906 
     74 H74        25.7160   -7.5722   -1.5791 H         1 UNK         0.0906 
     75 H75        26.5770   -5.9130    1.1027 H         1 UNK         0.3140 
     76 H76        26.5610   -3.9038    1.7768 H         1 UNK         0.1085 
     77 H77        28.5629   -2.4419    1.2577 H         1 UNK         0.0836 
     78 H78        28.8558   -4.0460    1.8265 H         1 UNK         0.0836 
     79 H79        28.3891   -2.1100   -1.5619 H         1 UNK         0.0731 
     80 H80        29.8362   -1.4764   -0.8106 H         1 UNK         0.0731 
     81 H81        31.5825   -0.8974   -2.3163 H         1 UNK         0.1312 
     82 H82        31.7525   -2.6269   -6.2367 H         1 UNK         0.1406 
     83 H83        28.8424   -3.9964   -3.4102 H         1 UNK         0.1631 
     84 H84        29.7501   -3.7624   -7.0336 H         1 UNK         0.0717 
     85 H85        30.3092   -5.1582   -6.1588 H         1 UNK         0.0717 
     86 H86        25.9583   -3.8531   -5.1769 H         1 UNK         0.0934 
     87 H87        27.2889   -2.9461   -4.5841 H         1 UNK         0.0934 
     88 H88        26.4704   -2.9104   -7.5414 H         1 UNK         0.0739 
     89 H89        25.0875   -1.6805   -5.3631 H         1 UNK         0.3093 
     90 H90        23.6456    1.0518   -7.0820 H         1 UNK         0.0818 
     91 H91        21.5333   -0.0305   -6.3643 H         1 UNK         0.0819 
     92 H92        22.2023   -0.8792   -7.7468 H         1 UNK         0.0819 
     93 H93        22.3613   -1.5720   -6.1390 H         1 UNK         0.0819 
     94 H94        23.2519    0.0518   -4.4490 H         1 UNK         0.3041 
     95 H95        26.0560    1.5536   -2.8814 H         1 UNK         0.0784 
     96 H96        24.5152    3.5030   -3.1468 H         1 UNK         0.0793 
     97 H97        23.1288    2.4743   -2.8142 H         1 UNK         0.0793 
     98 H98        24.3385    2.7668   -1.5634 H         1 UNK         0.0793 
     99 H99        23.7431    0.2719   -1.8177 H         1 UNK         0.3024 
    100 H100       23.8585   -1.7520   -0.9343 H         1 UNK         0.1171 
    101 H101       23.1338   -3.7821   -2.1602 H         1 UNK         0.0786 
    102 H102       22.9394   -2.3749   -3.1903 H         1 UNK         0.0786 
    103 H103       24.2970   -3.4657   -3.4434 H         1 UNK         0.0786 
    104 H104       25.7516   -3.8986   -1.5200 H         1 UNK         0.2977 
    105 H105       27.4718   -0.5767   -5.0004 H         1 UNK         0.3127 
    106 H106       30.0784   -0.0853   -5.9443 H         1 UNK         0.0770 
    107 H107       28.2730    1.7829   -4.3150 H         1 UNK         0.0814 
    108 H108       30.0298    1.8210   -4.3881 H         1 UNK         0.0814 
    109 H109       29.2195    0.4589   -3.6388 H         1 UNK         0.0814 
    110 H110       27.0161    1.5980   -6.7159 H         1 UNK         0.2983 
    111 H111       28.1327    3.5984   -8.4025 H         1 UNK         0.0947 
    112 H112       25.7867    3.8483   -9.2200 H         1 UNK         0.0806 
    113 H113       25.8395    3.7467   -7.4667 H         1 UNK         0.0806 
    114 H114       25.3305    2.3526   -8.4155 H         1 UNK         0.0806 
    115 H115       26.7481    0.3589   -9.2082 H         1 UNK         0.3000 
    116 H116       27.1597    0.5314  -12.0101 H         1 UNK         0.0850 
    117 H117       26.7862   -1.9489  -11.9444 H         1 UNK         0.0810 
    118 H118       25.5908   -1.0835  -10.9915 H         1 UNK         0.0810 
    119 H119       26.9158   -1.9234  -10.1896 H         1 UNK         0.0810 
    120 H120       29.2372   -0.8391   -9.4257 H         1 UNK         0.3040 
    121 H121       31.3507   -1.6419  -11.2456 H         1 UNK         0.0766 
    122 H122       30.9653   -2.8711   -9.1661 H         1 UNK         0.0812 
    123 H123       31.1794   -1.4116   -8.2073 H         1 UNK         0.0812 
    124 H124       32.5484   -2.1129   -9.0648 H         1 UNK         0.0812 
    125 H125       30.4761    1.3979   -9.9982 H         1 UNK         0.3205 
    126 H126       31.3081    3.4310   -9.9946 H         1 UNK         0.0754 
    127 H127       33.0034    4.0981  -11.6627 H         1 UNK         0.0769 
    128 H128       31.8545    2.9851  -12.3877 H         1 UNK         0.0769 
    129 H129       33.4617    2.4232  -11.9292 H         1 UNK         0.0769 
    130 H130       31.8023    2.1701   -7.7676 H         1 UNK         0.2981 
    131 H131       34.3920    3.2446   -6.8351 H         1 UNK         0.0541 
    132 H132       31.1786    3.7003   -6.4805 H         1 UNK         0.3459 
    133 H133       31.1954    4.1228   -4.7863 H         1 UNK         0.3459 
    134 H134       34.7887    1.1736   -5.4396 H         1 UNK         0.0612 
    135 H135       34.9704    0.9528   -7.1525 H         1 UNK         0.0612 
    136 H136       32.8900    0.1860   -4.0274 H         1 UNK         0.0624 
    137 H137       33.9106   -1.1996   -4.3628 H         1 UNK         0.0624 
@<TRIPOS>BOND
     1    1    2 1    
     2    1   72 1    
     3    1   73 1    
     4    1   74 1    
     5    2    3 2    
     6    2    4 am   BACKBONE|DICT|INTERRES
     7    4    5 1    
     8    4   75 1    
     9    5    6 1    
    10    5   35 1    
    11    5   76 1    
    12    6    7 1    
    13    6   77 1    
    14    6   78 1    
    15    7    8 1    
    16    8    9 1    
    17    8   79 1    
    18    8   80 1    
    19    9   10 ar   
    20    9   14 ar   
    21   10   11 ar   
    22   10   81 1    
    23   11   12 ar   
    24   11   71 1    
    25   12   13 ar   
    26   12   82 1    
    27   13   14 ar   
    28   13   15 1    
    29   14   83 1    
    30   15   16 1    
    31   15   84 1    
    32   15   85 1    
    33   16   17 1    
    34   17   18 1    
    35   17   86 1    
    36   17   87 1    
    37   18   19 1    
    38   18   37 1    
    39   18   88 1    
    40   19   20 am   BACKBONE|DICT|INTERRES
    41   19   89 1    
    42   20   21 2    
    43   20   22 1    
    44   22   23 1    
    45   22   24 1    
    46   22   90 1    
    47   23   91 1    
    48   23   92 1    
    49   23   93 1    
    50   24   25 am   BACKBONE|DICT|INTERRES
    51   24   94 1    
    52   25   26 2    
    53   25   27 1    
    54   27   28 1    
    55   27   29 1    
    56   27   95 1    
    57   28   96 1    
    58   28   97 1    
    59   28   98 1    
    60   29   30 am   BACKBONE|DICT|INTERRES
    61   29   99 1    
    62   30   31 2    
    63   30   32 1    
    64   32   33 1    
    65   32   34 1    
    66   32  100 1    
    67   33  101 1    
    68   33  102 1    
    69   33  103 1    
    70   34   35 am   BACKBONE|DICT|INTERRES
    71   34  104 1    
    72   35   36 2    
    73   37   38 2    
    74   37   39 am   BACKBONE|DICT|INTERRES
    75   39   40 1    
    76   39  105 1    
    77   40   41 1    
    78   40   42 1    
    79   40  106 1    
    80   41  107 1    
    81   41  108 1    
    82   41  109 1    
    83   42   43 2    
    84   42   44 am   BACKBONE|DICT|INTERRES
    85   44   45 1    
    86   44  110 1    
    87   45   46 1    
    88   45   47 1    
    89   45  111 1    
    90   46  112 1    
    91   46  113 1    
    92   46  114 1    
    93   47   48 2    
    94   47   49 am   BACKBONE|DICT|INTERRES
    95   49   50 1    
    96   49  115 1    
    97   50   51 1    
    98   50   52 1    
    99   50  116 1    
   100   51  117 1    
   101   51  118 1    
   102   51  119 1    
   103   52   53 2    
   104   52   54 am   BACKBONE|DICT|INTERRES
   105   54   55 1    
   106   54  120 1    
   107   55   56 1    
   108   55   57 1    
   109   55  121 1    
   110   56  122 1    
   111   56  123 1    
   112   56  124 1    
   113   57   58 2    
   114   57   59 am   BACKBONE|DICT|INTERRES
   115   59   60 1    
   116   59  125 1    
   117   60   61 1    
   118   60   62 1    
   119   60  126 1    
   120   61  127 1    
   121   61  128 1    
   122   61  129 1    
   123   62   63 2    
   124   62   64 am   BACKBONE|DICT|INTERRES
   125   64   65 1    
   126   64  130 1    
   127   65   66 1    
   128   65   69 1    
   129   65  131 1    
   130   66   67 am   BACKBONE|DICT|INTERRES
   131   66   68 2    
   132   67  132 1    
   133   67  133 1    
   134   69   70 1    
   135   69  134 1    
   136   69  135 1    
   137   70   71 1    
   138   71  136 1    
   139   71  137 1    
@<TRIPOS>SUBSTRUCTURE
     1 UNK         1 GROUP             0       ****    0 ROOT    
