@<TRIPOS>MOLECULE
3R137
137   139    1
SMALL
USER_CHARGES


@<TRIPOS>ATOM
      1 CA         25.7701   -6.8079   -6.6293 C.3       0 UNK        -0.2020 
      2 C          25.1299   -6.0618   -5.4683 C.2       0 UNK         0.4855 
      3 O          24.0112   -6.3884   -5.0707 O.2       0 UNK        -0.5197 
      4 N          25.8348   -5.0663   -4.9183 N.am      1 UNK        -0.4892 
      5 CA         25.3537   -4.1897   -3.8481 C.3       1 UNK         0.0835 
      6 C6         26.5166   -3.4232   -3.1642 C.3       12 UNK        -0.0855 
      7 S7         27.4922   -4.4959   -2.0598 S.3       12 UNK        -0.2931 
      8 C8         28.8385   -5.0893   -3.1386 C.3       12 UNK         0.0378 
      9 C9         29.9092   -4.0411   -3.4208 C.ar      12 UNK        -0.0802 
     10 C10        30.3028   -3.7745   -4.7367 C.ar      12 UNK        -0.0944 
     11 C11        31.3540   -2.8903   -5.0007 C.ar      12 UNK        -0.0787 
     12 C12        31.9953   -2.2475   -3.9369 C.ar      12 UNK        -0.0862 
     13 C13        31.5996   -2.4900   -2.6175 C.ar      12 UNK        -0.0733 
     14 C14        30.5651   -3.3968   -2.3666 C.ar      12 UNK        -0.0832 
     15 C15        32.2951   -1.7844   -1.4604 C.3       12 UNK         0.0240 
     16 S16        31.1980   -0.5944   -0.6208 S.3       12 UNK        -0.2522 
     17 C17        30.9094    0.6400   -1.9344 C.3       12 UNK        -0.0967 
     18 CA         29.6140    0.3486   -2.7393 C.3       5 UNK         0.0660 
     19 N          28.4034    0.2907   -1.9153 N.am      5 UNK        -0.4015 
     20 C          27.7747    1.3143   -1.3235 C.2       4 UNK         0.4946 
     21 O          28.1714    2.4815   -1.3287 O.2       4 UNK        -0.5353 
     22 CA         26.4419    0.9625   -0.6392 C.3       4 UNK         0.0277 
     23 CB         26.2580    1.7450    0.6736 C.3       4 UNK        -0.1981 
     24 N          25.2744    1.1898   -1.4997 N.am      4 UNK        -0.4209 
     25 C          25.0571    0.6550   -2.7099 C.2       3 UNK         0.4942 
     26 O          25.8703   -0.0421   -3.3239 O.2       3 UNK        -0.5208 
     27 CA         23.6825    0.9179   -3.3339 C.3       3 UNK         0.0250 
     28 CB         23.7583    1.9866   -4.4338 C.3       3 UNK        -0.1990 
     29 N          23.2308   -0.3415   -3.9119 N.am      3 UNK        -0.4232 
     30 C          22.0685   -0.9499   -3.6626 C.2       2 UNK         0.4993 
     31 O          21.1471   -0.4340   -3.0285 O.2       2 UNK        -0.5286 
     32 CA         21.9155   -2.3990   -4.1593 C.3       2 UNK         0.0209 
     33 CB         21.5125   -2.4474   -5.6473 C.3       2 UNK        -0.1931 
     34 N          23.0811   -3.2536   -3.8690 N.am      2 UNK        -0.4546 
     35 C          24.3058   -3.2125   -4.4148 C.2       1 UNK         0.5154 
     36 O          24.6335   -2.4280   -5.3061 O.2       1 UNK        -0.5181 
     37 C          29.4374    1.2661   -3.9672 C.2       5 UNK         0.5014 
     38 O          30.3356    2.0438   -4.2942 O.2       5 UNK        -0.5248 
     39 N          28.2807    1.1484   -4.6307 N.am      6 UNK        -0.4434 
     40 CA         27.9475    1.8647   -5.8594 C.3       6 UNK         0.0363 
     41 CB         27.2818    3.2119   -5.5194 C.3       6 UNK        -0.1936 
     42 C          27.1069    0.9687   -6.7816 C.2       6 UNK         0.5081 
     43 O          26.1643    1.4464   -7.4139 O.2       6 UNK        -0.5248 
     44 N          27.4667   -0.3223   -6.8479 N.am      7 UNK        -0.4718 
     45 CA         26.8312   -1.3213   -7.7167 C.3       7 UNK         0.0273 
     46 CB         27.3069   -2.7247   -7.3075 C.3       7 UNK        -0.1935 
     47 C          27.1150   -1.0835   -9.2107 C.2       7 UNK         0.5018 
     48 O          26.2984   -1.4535  -10.0551 O.2       7 UNK        -0.5186 
     49 N          28.2643   -0.4674   -9.4997 N.am      8 UNK        -0.4240 
     50 CA         28.7350   -0.0534  -10.8126 C.3       8 UNK         0.0235 
     51 CB         29.4245   -1.2390  -11.5135 C.3       8 UNK        -0.2000 
     52 C          29.7120    1.1082  -10.6024 C.2       8 UNK         0.4941 
     53 O          30.1906    1.3102   -9.4827 O.2       8 UNK        -0.5273 
     54 N          30.0410    1.8205  -11.6879 N.am      9 UNK        -0.4262 
     55 CA         30.9959    2.9388  -11.6975 C.3       9 UNK         0.0264 
     56 CB         30.9858    3.5983  -13.0866 C.3       9 UNK        -0.1955 
     57 C          32.4346    2.5532  -11.2944 C.2       9 UNK         0.5031 
     58 O          33.2057    3.4290  -10.9005 O.2       9 UNK        -0.5390 
     59 N          32.7662    1.2588  -11.3930 N.am      10 UNK        -0.4204 
     60 CA         34.0328    0.6749  -10.9546 C.3       10 UNK         0.0237 
     61 CB         34.1934   -0.7078  -11.6090 C.3       10 UNK        -0.1985 
     62 C          34.1704    0.5594   -9.4239 C.2       10 UNK         0.4970 
     63 O          35.2996    0.4263   -8.9493 O.2       10 UNK        -0.4914 
     64 N          33.0542    0.5797   -8.6793 N.am      11 UNK        -0.4285 
     65 CA         33.0500    0.4832   -7.2119 C.3       11 UNK         0.1007 
     66 C          33.6056    1.7653   -6.5340 C.2       11 UNK         0.5703 
     67 N          34.3259    1.6210   -5.4291 N.am      11 UNK        -0.7361 
     68 O          33.3663    2.8858   -6.9802 O.2       11 UNK        -0.4986 
     69 C69        31.6501    0.1311   -6.6456 C.3       12 UNK        -0.0947 
     70 S70        30.9322   -1.3987   -7.3274 S.3       12 UNK        -0.2240 
     71 C71        31.8439   -2.6926   -6.4295 C.3       12 UNK         0.0194 
     72 H72        25.8717   -7.8651   -6.3854 H         1 UNK         0.0906 
     73 H73        25.1467   -6.7218   -7.5189 H         1 UNK         0.0906 
     74 H74        26.7594   -6.4191   -6.8703 H         1 UNK         0.0906 
     75 H75        26.7326   -4.8238   -5.3068 H         1 UNK         0.3140 
     76 H76        24.8663   -4.8116   -3.0935 H         1 UNK         0.1085 
     77 H77        27.1674   -2.9369   -3.8926 H         1 UNK         0.0836 
     78 H78        26.1230   -2.6201   -2.5381 H         1 UNK         0.0836 
     79 H79        29.3179   -5.9370   -2.6472 H         1 UNK         0.0731 
     80 H80        28.4186   -5.4818   -4.0645 H         1 UNK         0.0731 
     81 H81        29.8202   -4.2855   -5.5586 H         1 UNK         0.1312 
     82 H82        32.8130   -1.5689   -4.1359 H         1 UNK         0.1406 
     83 H83        30.2710   -3.6027   -1.3460 H         1 UNK         0.1631 
     84 H84        33.1950   -1.2683   -1.7987 H         1 UNK         0.0717 
     85 H85        32.6257   -2.5295   -0.7354 H         1 UNK         0.0717 
     86 H86        30.8568    1.6289   -1.4758 H         1 UNK         0.0934 
     87 H87        31.7802    0.6594   -2.5925 H         1 UNK         0.0934 
     88 H88        29.7087   -0.6487   -3.1669 H         1 UNK         0.0739 
     89 H89        27.9558   -0.6139   -1.8805 H         1 UNK         0.3093 
     90 H90        26.4592   -0.1001   -0.3871 H         1 UNK         0.0818 
     91 H91        25.3732    1.4113    1.2161 H         1 UNK         0.0819 
     92 H92        27.1139    1.6027    1.3350 H         1 UNK         0.0819 
     93 H93        26.1594    2.8168    0.4962 H         1 UNK         0.0819 
     94 H94        24.5507    1.7725   -1.1043 H         1 UNK         0.3041 
     95 H95        22.9936    1.2528   -2.5554 H         1 UNK         0.0784 
     96 H96        22.7769    2.1700   -4.8712 H         1 UNK         0.0793 
     97 H97        24.1182    2.9355   -4.0347 H         1 UNK         0.0793 
     98 H98        24.4285    1.6862   -5.2398 H         1 UNK         0.0793 
     99 H99        23.9435   -0.8685   -4.4139 H         1 UNK         0.3024 
    100 H100       21.0898   -2.8309   -3.5907 H         1 UNK         0.1171 
    101 H101       22.2580   -1.9821   -6.2926 H         1 UNK         0.0786 
    102 H102       20.5729   -1.9178   -5.8100 H         1 UNK         0.0786 
    103 H103       21.3695   -3.4736   -5.9858 H         1 UNK         0.0786 
    104 H104       22.9247   -3.9334   -3.1370 H         1 UNK         0.2977 
    105 H105       27.5552    0.5342   -4.2657 H         1 UNK         0.3127 
    106 H106       28.8623    2.0765   -6.4168 H         1 UNK         0.0770 
    107 H107       26.3821    3.0749   -4.9224 H         1 UNK         0.0814 
    108 H108       27.0028    3.7563   -6.4223 H         1 UNK         0.0814 
    109 H109       27.9591    3.8520   -4.9540 H         1 UNK         0.0814 
    110 H110       28.2614   -0.6314   -6.3066 H         1 UNK         0.2983 
    111 H111       25.7510   -1.2623   -7.5648 H         1 UNK         0.0947 
    112 H112       26.7447   -3.4931   -7.8396 H         1 UNK         0.0806 
    113 H113       27.1605   -2.8930   -6.2431 H         1 UNK         0.0806 
    114 H114       28.3628   -2.8802   -7.5292 H         1 UNK         0.0806 
    115 H115       28.8631   -0.1625   -8.7409 H         1 UNK         0.3000 
    116 H116       27.8903    0.3000  -11.4077 H         1 UNK         0.0850 
    117 H117       30.2800   -1.6013  -10.9412 H         1 UNK         0.0810 
    118 H118       28.7366   -2.0744  -11.6456 H         1 UNK         0.0810 
    119 H119       29.7841   -0.9610  -12.5047 H         1 UNK         0.0810 
    120 H120       29.6096    1.5888  -12.5720 H         1 UNK         0.3040 
    121 H121       30.6477    3.6730  -10.9678 H         1 UNK         0.0766 
    122 H122       29.9928    3.9662  -13.3455 H         1 UNK         0.0812 
    123 H123       31.3027    2.9041  -13.8659 H         1 UNK         0.0812 
    124 H124       31.6628    4.4534  -13.1179 H         1 UNK         0.0812 
    125 H125       32.0689    0.6198  -11.7438 H         1 UNK         0.3205 
    126 H126       34.8440    1.3160  -11.3067 H         1 UNK         0.0754 
    127 H127       35.1468   -1.1618  -11.3344 H         1 UNK         0.0769 
    128 H128       34.1729   -0.6379  -12.6968 H         1 UNK         0.0769 
    129 H129       33.4047   -1.3954  -11.3000 H         1 UNK         0.0769 
    130 H130       32.1531    0.7465   -9.1122 H         1 UNK         0.2981 
    131 H131       33.7221   -0.3353   -6.9491 H         1 UNK         0.0541 
    132 H132       34.6817    2.4444   -4.9696 H         1 UNK         0.3459 
    133 H133       34.5365    0.7098   -5.0550 H         1 UNK         0.3459 
    134 H134       30.9514    0.9426   -6.8528 H         1 UNK         0.0612 
    135 H135       31.6902    0.0383   -5.5607 H         1 UNK         0.0612 
    136 H136       31.7338   -3.6280   -6.9800 H         1 UNK         0.0624 
    137 H137       32.9110   -2.4696   -6.4395 H         1 UNK         0.0624 
@<TRIPOS>BOND
     1    1    2 1    
     2    1   72 1    
     3    1   73 1    
     4    1   74 1    
     5    2    3 2    
     6    2    4 am   BACKBONE|DICT|INTERRES
     7    4    5 1    
     8    4   75 1    
     9    5    6 1    
    10    5   35 1    
    11    5   76 1    
    12    6    7 1    
    13    6   77 1    
    14    6   78 1    
    15    7    8 1    
    16    8    9 1    
    17    8   79 1    
    18    8   80 1    
    19    9   10 ar   
    20    9   14 ar   
    21   10   11 ar   
    22   10   81 1    
    23   11   12 ar   
    24   11   71 1    
    25   12   13 ar   
    26   12   82 1    
    27   13   14 ar   
    28   13   15 1    
    29   14   83 1    
    30   15   16 1    
    31   15   84 1    
    32   15   85 1    
    33   16   17 1    
    34   17   18 1    
    35   17   86 1    
    36   17   87 1    
    37   18   19 1    
    38   18   37 1    
    39   18   88 1    
    40   19   20 am   BACKBONE|DICT|INTERRES
    41   19   89 1    
    42   20   21 2    
    43   20   22 1    
    44   22   23 1    
    45   22   24 1    
    46   22   90 1    
    47   23   91 1    
    48   23   92 1    
    49   23   93 1    
    50   24   25 am   BACKBONE|DICT|INTERRES
    51   24   94 1    
    52   25   26 2    
    53   25   27 1    
    54   27   28 1    
    55   27   29 1    
    56   27   95 1    
    57   28   96 1    
    58   28   97 1    
    59   28   98 1    
    60   29   30 am   BACKBONE|DICT|INTERRES
    61   29   99 1    
    62   30   31 2    
    63   30   32 1    
    64   32   33 1    
    65   32   34 1    
    66   32  100 1    
    67   33  101 1    
    68   33  102 1    
    69   33  103 1    
    70   34   35 am   BACKBONE|DICT|INTERRES
    71   34  104 1    
    72   35   36 2    
    73   37   38 2    
    74   37   39 am   BACKBONE|DICT|INTERRES
    75   39   40 1    
    76   39  105 1    
    77   40   41 1    
    78   40   42 1    
    79   40  106 1    
    80   41  107 1    
    81   41  108 1    
    82   41  109 1    
    83   42   43 2    
    84   42   44 am   BACKBONE|DICT|INTERRES
    85   44   45 1    
    86   44  110 1    
    87   45   46 1    
    88   45   47 1    
    89   45  111 1    
    90   46  112 1    
    91   46  113 1    
    92   46  114 1    
    93   47   48 2    
    94   47   49 am   BACKBONE|DICT|INTERRES
    95   49   50 1    
    96   49  115 1    
    97   50   51 1    
    98   50   52 1    
    99   50  116 1    
   100   51  117 1    
   101   51  118 1    
   102   51  119 1    
   103   52   53 2    
   104   52   54 am   BACKBONE|DICT|INTERRES
   105   54   55 1    
   106   54  120 1    
   107   55   56 1    
   108   55   57 1    
   109   55  121 1    
   110   56  122 1    
   111   56  123 1    
   112   56  124 1    
   113   57   58 2    
   114   57   59 am   BACKBONE|DICT|INTERRES
   115   59   60 1    
   116   59  125 1    
   117   60   61 1    
   118   60   62 1    
   119   60  126 1    
   120   61  127 1    
   121   61  128 1    
   122   61  129 1    
   123   62   63 2    
   124   62   64 am   BACKBONE|DICT|INTERRES
   125   64   65 1    
   126   64  130 1    
   127   65   66 1    
   128   65   69 1    
   129   65  131 1    
   130   66   67 am   BACKBONE|DICT|INTERRES
   131   66   68 2    
   132   67  132 1    
   133   67  133 1    
   134   69   70 1    
   135   69  134 1    
   136   69  135 1    
   137   70   71 1    
   138   71  136 1    
   139   71  137 1    
@<TRIPOS>SUBSTRUCTURE
     1 UNK         1 GROUP             0       ****    0 ROOT    
