@<TRIPOS>MOLECULE
3R137
137   139    1
SMALL
USER_CHARGES


@<TRIPOS>ATOM
      1 CA         22.7189   -4.5321   -3.2063 C.3       0 UNK        -0.2020 
      2 C          23.9048   -3.9263   -2.4721 C.2       0 UNK         0.4855 
      3 O          23.8276   -2.7872   -2.0088 O.2       0 UNK        -0.5197 
      4 N          25.0020   -4.6875   -2.3626 N.am      1 UNK        -0.4892 
      5 CA         26.2318   -4.2916   -1.6677 C.3       1 UNK         0.0835 
      6 C6         27.2036   -5.4878   -1.5043 C.3       12 UNK        -0.0855 
      7 S7         28.4229   -5.2196   -0.1660 S.3       12 UNK        -0.2931 
      8 C8         29.9896   -5.7776   -0.9135 C.3       12 UNK         0.0378 
      9 C9         30.4691   -4.8792   -2.0474 C.ar      12 UNK        -0.0802 
     10 C10        31.1402   -3.6790   -1.7760 C.ar      12 UNK        -0.0944 
     11 C11        31.6161   -2.8750   -2.8207 C.ar      12 UNK        -0.0787 
     12 C12        31.4452   -3.3084   -4.1366 C.ar      12 UNK        -0.0862 
     13 C13        30.7152   -4.4608   -4.4216 C.ar      12 UNK        -0.0733 
     14 C14        30.2520   -5.2592   -3.3754 C.ar      12 UNK        -0.0832 
     15 C15        30.3598   -4.7818   -5.8625 C.3       12 UNK         0.0240 
     16 S16        28.7789   -3.9932   -6.3136 S.3       12 UNK        -0.2522 
     17 C17        29.1499   -2.2246   -6.0327 C.3       12 UNK        -0.0967 
     18 CA         28.1321   -1.3131   -6.7405 C.3       5 UNK         0.0660 
     19 N          26.8266   -1.3282   -6.0814 N.am      5 UNK        -0.4015 
     20 C          25.7063   -0.8664   -6.6503 C.2       4 UNK         0.4946 
     21 O          25.6663   -0.3744   -7.7784 O.2       4 UNK        -0.5353 
     22 CA         24.4228   -0.9413   -5.8134 C.3       4 UNK         0.0277 
     23 CB         23.8452   -2.3637   -5.8335 C.3       4 UNK        -0.1981 
     24 N          24.6422   -0.5043   -4.4332 N.am      4 UNK        -0.4209 
     25 C          24.8816    0.7687   -4.0859 C.2       3 UNK         0.4942 
     26 O          24.8952    1.7079   -4.8832 O.2       3 UNK        -0.5208 
     27 CA         25.2000    1.0301   -2.6042 C.3       3 UNK         0.0250 
     28 CB         23.9221    0.9919   -1.7508 C.3       3 UNK        -0.1990 
     29 N          26.1861    0.0892   -2.0654 N.am      3 UNK        -0.4232 
     30 C          27.4543    0.0011   -2.4940 C.2       2 UNK         0.4993 
     31 O          27.9257    0.7207   -3.3670 O.2       2 UNK        -0.5286 
     32 CA         28.3461   -1.0885   -1.8846 C.3       2 UNK         0.0209 
     33 CB         29.1112   -0.5413   -0.6699 C.3       2 UNK        -0.1931 
     34 N          27.6150   -2.2925   -1.4972 N.am      2 UNK        -0.4546 
     35 C          26.9127   -3.0733   -2.3283 C.2       1 UNK         0.5154 
     36 O          26.7819   -2.8535   -3.5374 O.2       1 UNK        -0.5181 
     37 C          28.6839    0.1104   -6.9593 C.2       5 UNK         0.5014 
     38 O          29.3592    0.3226   -7.9651 O.2       5 UNK        -0.5248 
     39 N          28.3829    1.0740   -6.0770 N.am      6 UNK        -0.4434 
     40 CA         28.6984    2.4911   -6.2831 C.3       6 UNK         0.0363 
     41 CB         28.4637    3.2947   -4.9955 C.3       6 UNK        -0.1936 
     42 C          27.9091    3.1005   -7.4506 C.2       6 UNK         0.5081 
     43 O          28.4939    3.8274   -8.2526 O.2       6 UNK        -0.5248 
     44 N          26.6171    2.7569   -7.5627 N.am      7 UNK        -0.4718 
     45 CA         25.7550    3.1538   -8.6821 C.3       7 UNK         0.0273 
     46 CB         24.2934    2.7998   -8.3649 C.3       7 UNK        -0.1935 
     47 C          26.1987    2.5361  -10.0213 C.2       7 UNK         0.5018 
     48 O          26.1252    3.2065  -11.0514 O.2       7 UNK        -0.5186 
     49 N          26.6942    1.2915   -9.9746 N.am      8 UNK        -0.4240 
     50 CA         27.3117    0.5870  -11.1028 C.3       8 UNK         0.0235 
     51 CB         27.3035   -0.9224  -10.8085 C.3       8 UNK        -0.2000 
     52 C          28.7456    1.0579  -11.4276 C.2       8 UNK         0.4941 
     53 O          29.2891    0.6277  -12.4457 O.2       8 UNK        -0.5273 
     54 N          29.3380    1.8998  -10.5653 N.am      9 UNK        -0.4262 
     55 CA         30.7129    2.4154  -10.6079 C.3       9 UNK         0.0264 
     56 CB         30.9373    3.3027  -11.8511 C.3       9 UNK        -0.1955 
     57 C          31.7906    1.3221  -10.4424 C.2       9 UNK         0.5031 
     58 O          32.8932    1.4633  -10.9749 O.2       9 UNK        -0.5390 
     59 N          31.4660    0.2639   -9.6883 N.am      10 UNK        -0.4204 
     60 CA         32.3616   -0.8443   -9.3535 C.3       10 UNK         0.0237 
     61 CB         31.5484   -2.1450   -9.2481 C.3       10 UNK        -0.1985 
     62 C          33.1747   -0.5816   -8.0727 C.2       10 UNK         0.4970 
     63 O          34.2820   -1.1095   -7.9632 O.2       10 UNK        -0.4914 
     64 N          32.6517    0.2408   -7.1508 N.am      11 UNK        -0.4285 
     65 CA         33.3906    0.7539   -5.9812 C.3       11 UNK         0.1007 
     66 C          33.0914    2.2447   -5.6495 C.2       11 UNK         0.5703 
     67 N          32.4784    3.0088   -6.5470 N.am      11 UNK        -0.7361 
     68 O          33.4518    2.7329   -4.5813 O.2       11 UNK        -0.4986 
     69 C69        33.3843   -0.2144   -4.7600 C.3       12 UNK        -0.0947 
     70 S70        31.8666   -0.2226   -3.7402 S.3       12 UNK        -0.2240 
     71 C71        32.2840   -1.5327   -2.5253 C.3       12 UNK         0.0194 
     72 H72        23.0378   -5.0363   -4.1183 H         1 UNK         0.0906 
     73 H73        22.0000   -3.7603   -3.4798 H         1 UNK         0.0906 
     74 H74        22.2105   -5.2552   -2.5693 H         1 UNK         0.0906 
     75 H75        25.0156   -5.5987   -2.7980 H         1 UNK         0.3140 
     76 H76        25.9133   -3.9814   -0.6694 H         1 UNK         0.1085 
     77 H77        27.6960   -5.7170   -2.4490 H         1 UNK         0.0836 
     78 H78        26.6447   -6.3865   -1.2384 H         1 UNK         0.0836 
     79 H79        30.7538   -5.8083   -0.1353 H         1 UNK         0.0731 
     80 H80        29.8745   -6.8059   -1.2601 H         1 UNK         0.0731 
     81 H81        31.2832   -3.3695   -0.7498 H         1 UNK         0.1312 
     82 H82        31.8138   -2.7079   -4.9542 H         1 UNK         0.1406 
     83 H83        29.7042   -6.1645   -3.5988 H         1 UNK         0.1631 
     84 H84        30.2761   -5.8607   -6.0008 H         1 UNK         0.0717 
     85 H85        31.1456   -4.4423   -6.5393 H         1 UNK         0.0717 
     86 H86        29.1554   -2.0216   -4.9609 H         1 UNK         0.0934 
     87 H87        30.1613   -2.0267   -6.3876 H         1 UNK         0.0934 
     88 H88        27.9805   -1.7209   -7.7414 H         1 UNK         0.0739 
     89 H89        26.7805   -1.7692   -5.1657 H         1 UNK         0.3093 
     90 H90        23.6903   -0.2721   -6.2705 H         1 UNK         0.0818 
     91 H91        23.6741   -2.6999   -6.8571 H         1 UNK         0.0819 
     92 H92        24.5189   -3.0814   -5.3635 H         1 UNK         0.0819 
     93 H93        22.8868   -2.4050   -5.3171 H         1 UNK         0.0819 
     94 H94        24.6707   -1.2196   -3.7174 H         1 UNK         0.3041 
     95 H95        25.6260    2.0333   -2.5324 H         1 UNK         0.0784 
     96 H96        23.1783    1.6932   -2.1318 H         1 UNK         0.0793 
     97 H97        23.4648    0.0015   -1.7471 H         1 UNK         0.0793 
     98 H98        24.1276    1.2699   -0.7170 H         1 UNK         0.0793 
     99 H99        25.8684   -0.5591   -1.3593 H         1 UNK         0.3024 
    100 H100       29.0726   -1.3782   -2.6463 H         1 UNK         0.1171 
    101 H101       29.7140    0.3239   -0.9504 H         1 UNK         0.0786 
    102 H102       28.4358   -0.2259    0.1263 H         1 UNK         0.0786 
    103 H103       29.7904   -1.2875   -0.2581 H         1 UNK         0.0786 
    104 H104       27.6971   -2.5758   -0.5309 H         1 UNK         0.2977 
    105 H105       27.9354    0.8360   -5.1933 H         1 UNK         0.3127 
    106 H106       29.7580    2.5636   -6.5315 H         1 UNK         0.0770 
    107 H107       27.4365    3.1992   -4.6411 H         1 UNK         0.0814 
    108 H108       28.6601    4.3559   -5.1538 H         1 UNK         0.0814 
    109 H109       29.1276    2.9610   -4.1979 H         1 UNK         0.0814 
    110 H110       26.2077    2.1552   -6.8582 H         1 UNK         0.2983 
    111 H111       25.8251    4.2390   -8.7850 H         1 UNK         0.0947 
    112 H112       24.1490    1.7253   -8.2535 H         1 UNK         0.0806 
    113 H113       23.6300    3.1360   -9.1628 H         1 UNK         0.0806 
    114 H114       23.9609    3.2775   -7.4430 H         1 UNK         0.0806 
    115 H115       26.6256    0.7835   -9.0970 H         1 UNK         0.3000 
    116 H116       26.7019    0.7648  -11.9911 H         1 UNK         0.0850 
    117 H117       27.6357   -1.4910  -11.6780 H         1 UNK         0.0810 
    118 H118       26.3045   -1.2758  -10.5516 H         1 UNK         0.0810 
    119 H119       27.9722   -1.1724   -9.9855 H         1 UNK         0.0810 
    120 H120       28.8031    2.1881   -9.7551 H         1 UNK         0.3040 
    121 H121       30.8101    3.0585   -9.7322 H         1 UNK         0.0766 
    122 H122       30.9294    2.7200  -12.7726 H         1 UNK         0.0812 
    123 H123       31.9000    3.8127  -11.7992 H         1 UNK         0.0812 
    124 H124       30.1692    4.0717  -11.9326 H         1 UNK         0.0812 
    125 H125       30.5527    0.2606   -9.2310 H         1 UNK         0.3205 
    126 H126       33.0819   -0.9756  -10.1639 H         1 UNK         0.0754 
    127 H127       32.1689   -2.9748   -8.9066 H         1 UNK         0.0769 
    128 H128       31.1379   -2.4263  -10.2181 H         1 UNK         0.0769 
    129 H129       30.7134   -2.0500   -8.5575 H         1 UNK         0.0769 
    130 H130       31.7179    0.6030   -7.2801 H         1 UNK         0.2981 
    131 H131       34.4359    0.8113   -6.2909 H         1 UNK         0.0541 
    132 H132       32.3106    3.9763   -6.3206 H         1 UNK         0.3459 
    133 H133       32.2649    2.6655   -7.4669 H         1 UNK         0.3459 
    134 H134       34.2111    0.0479   -4.0978 H         1 UNK         0.0612 
    135 H135       33.5952   -1.2312   -5.0926 H         1 UNK         0.0612 
    136 H136       31.9788   -1.1784   -1.5402 H         1 UNK         0.0624 
    137 H137       33.3644   -1.6734   -2.4781 H         1 UNK         0.0624 
@<TRIPOS>BOND
     1    1    2 1    
     2    1   72 1    
     3    1   73 1    
     4    1   74 1    
     5    2    3 2    
     6    2    4 am   BACKBONE|DICT|INTERRES
     7    4    5 1    
     8    4   75 1    
     9    5    6 1    
    10    5   35 1    
    11    5   76 1    
    12    6    7 1    
    13    6   77 1    
    14    6   78 1    
    15    7    8 1    
    16    8    9 1    
    17    8   79 1    
    18    8   80 1    
    19    9   10 ar   
    20    9   14 ar   
    21   10   11 ar   
    22   10   81 1    
    23   11   12 ar   
    24   11   71 1    
    25   12   13 ar   
    26   12   82 1    
    27   13   14 ar   
    28   13   15 1    
    29   14   83 1    
    30   15   16 1    
    31   15   84 1    
    32   15   85 1    
    33   16   17 1    
    34   17   18 1    
    35   17   86 1    
    36   17   87 1    
    37   18   19 1    
    38   18   37 1    
    39   18   88 1    
    40   19   20 am   BACKBONE|DICT|INTERRES
    41   19   89 1    
    42   20   21 2    
    43   20   22 1    
    44   22   23 1    
    45   22   24 1    
    46   22   90 1    
    47   23   91 1    
    48   23   92 1    
    49   23   93 1    
    50   24   25 am   BACKBONE|DICT|INTERRES
    51   24   94 1    
    52   25   26 2    
    53   25   27 1    
    54   27   28 1    
    55   27   29 1    
    56   27   95 1    
    57   28   96 1    
    58   28   97 1    
    59   28   98 1    
    60   29   30 am   BACKBONE|DICT|INTERRES
    61   29   99 1    
    62   30   31 2    
    63   30   32 1    
    64   32   33 1    
    65   32   34 1    
    66   32  100 1    
    67   33  101 1    
    68   33  102 1    
    69   33  103 1    
    70   34   35 am   BACKBONE|DICT|INTERRES
    71   34  104 1    
    72   35   36 2    
    73   37   38 2    
    74   37   39 am   BACKBONE|DICT|INTERRES
    75   39   40 1    
    76   39  105 1    
    77   40   41 1    
    78   40   42 1    
    79   40  106 1    
    80   41  107 1    
    81   41  108 1    
    82   41  109 1    
    83   42   43 2    
    84   42   44 am   BACKBONE|DICT|INTERRES
    85   44   45 1    
    86   44  110 1    
    87   45   46 1    
    88   45   47 1    
    89   45  111 1    
    90   46  112 1    
    91   46  113 1    
    92   46  114 1    
    93   47   48 2    
    94   47   49 am   BACKBONE|DICT|INTERRES
    95   49   50 1    
    96   49  115 1    
    97   50   51 1    
    98   50   52 1    
    99   50  116 1    
   100   51  117 1    
   101   51  118 1    
   102   51  119 1    
   103   52   53 2    
   104   52   54 am   BACKBONE|DICT|INTERRES
   105   54   55 1    
   106   54  120 1    
   107   55   56 1    
   108   55   57 1    
   109   55  121 1    
   110   56  122 1    
   111   56  123 1    
   112   56  124 1    
   113   57   58 2    
   114   57   59 am   BACKBONE|DICT|INTERRES
   115   59   60 1    
   116   59  125 1    
   117   60   61 1    
   118   60   62 1    
   119   60  126 1    
   120   61  127 1    
   121   61  128 1    
   122   61  129 1    
   123   62   63 2    
   124   62   64 am   BACKBONE|DICT|INTERRES
   125   64   65 1    
   126   64  130 1    
   127   65   66 1    
   128   65   69 1    
   129   65  131 1    
   130   66   67 am   BACKBONE|DICT|INTERRES
   131   66   68 2    
   132   67  132 1    
   133   67  133 1    
   134   69   70 1    
   135   69  134 1    
   136   69  135 1    
   137   70   71 1    
   138   71  136 1    
   139   71  137 1    
@<TRIPOS>SUBSTRUCTURE
     1 UNK         1 GROUP             0       ****    0 ROOT    
