@<TRIPOS>MOLECULE
3R137
137   139    1
SMALL
USER_CHARGES


@<TRIPOS>ATOM
      1 CA         22.8395   -6.7416   -2.6630 C.3       0 UNK        -0.2020 
      2 C          24.3046   -6.5387   -2.3071 C.2       0 UNK         0.4855 
      3 O          24.7279   -6.9233   -1.2169 O.2       0 UNK        -0.5197 
      4 N          25.0821   -5.9388   -3.2191 N.am      1 UNK        -0.4892 
      5 CA         26.5082   -5.6322   -3.0325 C.3       1 UNK         0.0835 
      6 C6         27.1951   -5.3366   -4.3933 C.3       12 UNK        -0.0855 
      7 S7         28.9345   -5.8898   -4.4452 S.3       12 UNK        -0.2931 
      8 C8         29.7069   -4.6106   -5.4914 C.3       12 UNK         0.0378 
      9 C9         30.4704   -3.5670   -4.6838 C.ar      12 UNK        -0.0802 
     10 C10        31.8200   -3.3197   -4.9599 C.ar      12 UNK        -0.0944 
     11 C11        32.5179   -2.3247   -4.2694 C.ar      12 UNK        -0.0787 
     12 C12        31.8698   -1.6019   -3.2660 C.ar      12 UNK        -0.0862 
     13 C13        30.5241   -1.8375   -2.9783 C.ar      12 UNK        -0.0733 
     14 C14        29.8292   -2.8182   -3.6915 C.ar      12 UNK        -0.0832 
     15 C15        29.8267   -1.0175   -1.9035 C.3       12 UNK         0.0240 
     16 S16        28.4150   -0.0625   -2.5447 S.3       12 UNK        -0.2522 
     17 C17        29.1194    0.8505   -3.9670 C.3       12 UNK        -0.0967 
     18 CA         28.3864    0.5168   -5.2935 C.3       5 UNK         0.0660 
     19 N          26.9330    0.6665   -5.1247 N.am      5 UNK        -0.4015 
     20 C          25.9612    0.6989   -6.0450 C.2       4 UNK         0.4946 
     21 O          26.1706    0.7087   -7.2560 O.2       4 UNK        -0.5353 
     22 CA         24.5029    0.7055   -5.5476 C.3       4 UNK         0.0277 
     23 CB         23.6962   -0.4153   -6.2264 C.3       4 UNK        -0.1981 
     24 N          24.3684    0.5635   -4.0944 N.am      4 UNK        -0.4209 
     25 C          24.5269    1.5332   -3.1870 C.2       3 UNK         0.4942 
     26 O          24.8250    2.6911   -3.4783 O.2       3 UNK        -0.5208 
     27 CA         24.3551    1.1475   -1.7048 C.3       3 UNK         0.0250 
     28 CB         22.8638    1.0891   -1.3193 C.3       3 UNK        -0.1990 
     29 N          25.0673   -0.0744   -1.2903 N.am      3 UNK        -0.4232 
     30 C          24.8633   -1.3416   -1.6785 C.2       2 UNK         0.4993 
     31 O          24.0093   -1.6867   -2.5015 O.2       2 UNK        -0.5286 
     32 CA         25.7659   -2.4053   -1.0432 C.3       2 UNK         0.0209 
     33 CB         25.2670   -2.7886    0.3617 C.3       2 UNK        -0.1931 
     34 N          25.7591   -3.5806   -1.9070 N.am      2 UNK        -0.4546 
     35 C          26.7340   -4.4906   -2.0139 C.2       1 UNK         0.5154 
     36 O          27.7692   -4.4570   -1.3478 O.2       1 UNK        -0.5181 
     37 C          28.9890    1.3279   -6.4617 C.2       5 UNK         0.5014 
     38 O          29.7628    0.7836   -7.2555 O.2       5 UNK        -0.5248 
     39 N          28.5862    2.6021   -6.5630 N.am      6 UNK        -0.4434 
     40 CA         29.0299    3.5553   -7.5825 C.3       6 UNK         0.0363 
     41 CB         28.6612    4.9764   -7.1276 C.3       6 UNK        -0.1936 
     42 C          28.4805    3.2843   -8.9962 C.2       6 UNK         0.5081 
     43 O          29.0252    3.8312   -9.9546 O.2       6 UNK        -0.5248 
     44 N          27.4301    2.4641   -9.1162 N.am      7 UNK        -0.4718 
     45 CA         26.8540    2.0285  -10.3899 C.3       7 UNK         0.0273 
     46 CB         25.3297    2.2291  -10.3522 C.3       7 UNK        -0.1935 
     47 C          27.1943    0.5578  -10.6697 C.2       7 UNK         0.5018 
     48 O          27.4957    0.2152  -11.8130 O.2       7 UNK        -0.5186 
     49 N          27.1367   -0.2807   -9.6255 N.am      8 UNK        -0.4240 
     50 CA         27.3639   -1.7241   -9.6786 C.3       8 UNK         0.0235 
     51 CB         26.9341   -2.3575   -8.3433 C.3       8 UNK        -0.2000 
     52 C          28.8143   -2.1022  -10.0089 C.2       8 UNK         0.4941 
     53 O          29.0245   -3.0109  -10.8137 O.2       8 UNK        -0.5273 
     54 N          29.7775   -1.4184   -9.3765 N.am      9 UNK        -0.4262 
     55 CA         31.2074   -1.7205   -9.4966 C.3       9 UNK         0.0264 
     56 CB         31.6571   -2.4312   -8.2115 C.3       9 UNK        -0.1955 
     57 C          32.0755   -0.4812   -9.7664 C.2       9 UNK         0.5031 
     58 O          33.2791   -0.6406   -9.9741 O.2       9 UNK        -0.5390 
     59 N          31.4739    0.7184   -9.7450 N.am      10 UNK        -0.4204 
     60 CA         32.1246    2.0344   -9.8218 C.3       10 UNK         0.0237 
     61 CB         32.8303    2.2411  -11.1797 C.3       10 UNK        -0.1985 
     62 C          33.0345    2.3318   -8.6117 C.2       10 UNK         0.4970 
     63 O          33.9847    3.1063   -8.7374 O.2       10 UNK        -0.4914 
     64 N          32.7240    1.7207   -7.4622 N.am      11 UNK        -0.4285 
     65 CA         33.4414    1.9028   -6.1965 C.3       11 UNK         0.1007 
     66 C          32.9458    3.1765   -5.4655 C.2       11 UNK         0.5703 
     67 N          33.8532    3.9873   -4.9393 N.am      11 UNK        -0.7361 
     68 O          31.7464    3.4123   -5.3360 O.2       11 UNK        -0.4986 
     69 C69        33.2980    0.6572   -5.2892 C.3       12 UNK        -0.0947 
     70 S70        34.0828   -0.8271   -6.0026 S.3       12 UNK        -0.2240 
     71 C71        33.9646   -2.0085   -4.6199 C.3       12 UNK         0.0194 
     72 H72        22.5904   -7.8021   -2.6361 H         1 UNK         0.0906 
     73 H73        22.2043   -6.2242   -1.9445 H         1 UNK         0.0906 
     74 H74        22.6037   -6.3635   -3.6576 H         1 UNK         0.0906 
     75 H75        24.6788   -5.6539   -4.1008 H         1 UNK         0.3140 
     76 H76        26.9651   -6.5272   -2.6029 H         1 UNK         0.1085 
     77 H77        26.6899   -5.8776   -5.1955 H         1 UNK         0.0836 
     78 H78        27.1119   -4.2814   -4.6611 H         1 UNK         0.0836 
     79 H79        30.3806   -5.1148   -6.1859 H         1 UNK         0.0731 
     80 H80        28.9585   -4.1149   -6.1111 H         1 UNK         0.0731 
     81 H81        32.3248   -3.8798   -5.7350 H         1 UNK         0.1312 
     82 H82        32.4098   -0.8356   -2.7269 H         1 UNK         0.1406 
     83 H83        28.7861   -2.9911   -3.4733 H         1 UNK         0.1631 
     84 H84        30.5235   -0.3275   -1.4249 H         1 UNK         0.0717 
     85 H85        29.4720   -1.6889   -1.1202 H         1 UNK         0.0717 
     86 H86        30.1858    0.6429   -4.0534 H         1 UNK         0.0934 
     87 H87        29.0452    1.9165   -3.7424 H         1 UNK         0.0934 
     88 H88        28.5617   -0.5365   -5.5204 H         1 UNK         0.0739 
     89 H89        26.6347    0.6691   -4.1605 H         1 UNK         0.3093 
     90 H90        24.0714    1.6636   -5.8445 H         1 UNK         0.0818 
     91 H91        22.6496   -0.3903   -5.9226 H         1 UNK         0.0819 
     92 H92        23.7168   -0.3153   -7.3127 H         1 UNK         0.0819 
     93 H93        24.0932   -1.4014   -5.9818 H         1 UNK         0.0819 
     94 H94        24.1370   -0.3628   -3.7369 H         1 UNK         0.3041 
     95 H95        24.8054    1.9550   -1.1249 H         1 UNK         0.0784 
     96 H96        22.3670    2.0340   -1.5437 H         1 UNK         0.0793 
     97 H97        22.3297    0.3074   -1.8603 H         1 UNK         0.0793 
     98 H98        22.7380    0.9030   -0.2527 H         1 UNK         0.0793 
     99 H99        25.8180    0.0893   -0.6328 H         1 UNK         0.3024 
    100 H100       26.7823   -2.0118   -0.9780 H         1 UNK         0.1171 
    101 H101       24.2530   -3.1897    0.3319 H         1 UNK         0.0786 
    102 H102       25.2585   -1.9245    1.0272 H         1 UNK         0.0786 
    103 H103       25.9096   -3.5413    0.8189 H         1 UNK         0.0786 
    104 H104       24.9474   -3.6460   -2.5090 H         1 UNK         0.2977 
    105 H105       27.9264    2.9480   -5.8814 H         1 UNK         0.3127 
    106 H106       30.1181    3.4932   -7.6436 H         1 UNK         0.0770 
    107 H107       27.5826    5.1010   -7.0243 H         1 UNK         0.0814 
    108 H108       29.0080    5.7198   -7.8469 H         1 UNK         0.0814 
    109 H109       29.1238    5.2171   -6.1701 H         1 UNK         0.0814 
    110 H110       27.0453    2.0314   -8.2807 H         1 UNK         0.2983 
    111 H111       27.2514    2.6217  -11.2166 H         1 UNK         0.0947 
    112 H112       24.8706    1.9095  -11.2887 H         1 UNK         0.0806 
    113 H113       25.0741    3.2789  -10.2078 H         1 UNK         0.0806 
    114 H114       24.8633    1.6585   -9.5479 H         1 UNK         0.0806 
    115 H115       26.8264    0.0921   -8.7281 H         1 UNK         0.3000 
    116 H116       26.7281   -2.1299  -10.4685 H         1 UNK         0.0850 
    117 H117       27.0740   -3.4392   -8.3598 H         1 UNK         0.0810 
    118 H118       25.8799   -2.1701   -8.1381 H         1 UNK         0.0810 
    119 H119       27.5109   -1.9657   -7.5045 H         1 UNK         0.0810 
    120 H120       29.5170   -0.7156   -8.6924 H         1 UNK         0.3040 
    121 H121       31.3860   -2.3936  -10.3376 H         1 UNK         0.0766 
    122 H122       32.7202   -2.6739   -8.2412 H         1 UNK         0.0812 
    123 H123       31.4875   -1.8037   -7.3357 H         1 UNK         0.0812 
    124 H124       31.1155   -3.3656   -8.0665 H         1 UNK         0.0812 
    125 H125       30.4852    0.7386   -9.5409 H         1 UNK         0.3205 
    126 H126       31.3263    2.7705   -9.7671 H         1 UNK         0.0754 
    127 H127       33.1603    3.2743  -11.2943 H         1 UNK         0.0769 
    128 H128       32.1603    2.0233  -12.0114 H         1 UNK         0.0769 
    129 H129       33.7119    1.6080  -11.2824 H         1 UNK         0.0769 
    130 H130       31.8848    1.1560   -7.4195 H         1 UNK         0.2981 
    131 H131       34.5034    2.0288   -6.4179 H         1 UNK         0.0541 
    132 H132       34.8393    3.7984   -5.0310 H         1 UNK         0.3459 
    133 H133       33.5445    4.8110   -4.4473 H         1 UNK         0.3459 
    134 H134       32.2433    0.4428   -5.1164 H         1 UNK         0.0612 
    135 H135       33.7492    0.8394   -4.3119 H         1 UNK         0.0612 
    136 H136       34.4865   -2.9260   -4.8952 H         1 UNK         0.0624 
    137 H137       34.4907   -1.6053   -3.7532 H         1 UNK         0.0624 
@<TRIPOS>BOND
     1    1    2 1    
     2    1   72 1    
     3    1   73 1    
     4    1   74 1    
     5    2    3 2    
     6    2    4 am   BACKBONE|DICT|INTERRES
     7    4    5 1    
     8    4   75 1    
     9    5    6 1    
    10    5   35 1    
    11    5   76 1    
    12    6    7 1    
    13    6   77 1    
    14    6   78 1    
    15    7    8 1    
    16    8    9 1    
    17    8   79 1    
    18    8   80 1    
    19    9   10 ar   
    20    9   14 ar   
    21   10   11 ar   
    22   10   81 1    
    23   11   12 ar   
    24   11   71 1    
    25   12   13 ar   
    26   12   82 1    
    27   13   14 ar   
    28   13   15 1    
    29   14   83 1    
    30   15   16 1    
    31   15   84 1    
    32   15   85 1    
    33   16   17 1    
    34   17   18 1    
    35   17   86 1    
    36   17   87 1    
    37   18   19 1    
    38   18   37 1    
    39   18   88 1    
    40   19   20 am   BACKBONE|DICT|INTERRES
    41   19   89 1    
    42   20   21 2    
    43   20   22 1    
    44   22   23 1    
    45   22   24 1    
    46   22   90 1    
    47   23   91 1    
    48   23   92 1    
    49   23   93 1    
    50   24   25 am   BACKBONE|DICT|INTERRES
    51   24   94 1    
    52   25   26 2    
    53   25   27 1    
    54   27   28 1    
    55   27   29 1    
    56   27   95 1    
    57   28   96 1    
    58   28   97 1    
    59   28   98 1    
    60   29   30 am   BACKBONE|DICT|INTERRES
    61   29   99 1    
    62   30   31 2    
    63   30   32 1    
    64   32   33 1    
    65   32   34 1    
    66   32  100 1    
    67   33  101 1    
    68   33  102 1    
    69   33  103 1    
    70   34   35 am   BACKBONE|DICT|INTERRES
    71   34  104 1    
    72   35   36 2    
    73   37   38 2    
    74   37   39 am   BACKBONE|DICT|INTERRES
    75   39   40 1    
    76   39  105 1    
    77   40   41 1    
    78   40   42 1    
    79   40  106 1    
    80   41  107 1    
    81   41  108 1    
    82   41  109 1    
    83   42   43 2    
    84   42   44 am   BACKBONE|DICT|INTERRES
    85   44   45 1    
    86   44  110 1    
    87   45   46 1    
    88   45   47 1    
    89   45  111 1    
    90   46  112 1    
    91   46  113 1    
    92   46  114 1    
    93   47   48 2    
    94   47   49 am   BACKBONE|DICT|INTERRES
    95   49   50 1    
    96   49  115 1    
    97   50   51 1    
    98   50   52 1    
    99   50  116 1    
   100   51  117 1    
   101   51  118 1    
   102   51  119 1    
   103   52   53 2    
   104   52   54 am   BACKBONE|DICT|INTERRES
   105   54   55 1    
   106   54  120 1    
   107   55   56 1    
   108   55   57 1    
   109   55  121 1    
   110   56  122 1    
   111   56  123 1    
   112   56  124 1    
   113   57   58 2    
   114   57   59 am   BACKBONE|DICT|INTERRES
   115   59   60 1    
   116   59  125 1    
   117   60   61 1    
   118   60   62 1    
   119   60  126 1    
   120   61  127 1    
   121   61  128 1    
   122   61  129 1    
   123   62   63 2    
   124   62   64 am   BACKBONE|DICT|INTERRES
   125   64   65 1    
   126   64  130 1    
   127   65   66 1    
   128   65   69 1    
   129   65  131 1    
   130   66   67 am   BACKBONE|DICT|INTERRES
   131   66   68 2    
   132   67  132 1    
   133   67  133 1    
   134   69   70 1    
   135   69  134 1    
   136   69  135 1    
   137   70   71 1    
   138   71  136 1    
   139   71  137 1    
@<TRIPOS>SUBSTRUCTURE
     1 UNK         1 GROUP             0       ****    0 ROOT    
