@<TRIPOS>MOLECULE
3R137
137   139    1
SMALL
USER_CHARGES


@<TRIPOS>ATOM
      1 CA         25.8196   -6.5287    0.4284 C.3       0 UNK        -0.2020 
      2 C          25.8739   -5.0326    0.6986 C.2       0 UNK         0.4855 
      3 O          25.1886   -4.5475    1.5990 O.2       0 UNK        -0.5197 
      4 N          26.6829   -4.2971   -0.0752 N.am      1 UNK        -0.4892 
      5 CA         26.8736   -2.8436    0.0513 C.3       1 UNK         0.0835 
      6 C6         28.1612   -2.3644   -0.6638 C.3       12 UNK        -0.0855 
      7 S7         29.6560   -3.2212   -0.0675 S.3       12 UNK        -0.2931 
      8 C8         30.9690   -2.2303   -0.8615 C.3       12 UNK         0.0378 
      9 C9         30.9647   -2.2661   -2.3904 C.ar      12 UNK        -0.0802 
     10 C10        31.3992   -1.1407   -3.0983 C.ar      12 UNK        -0.0944 
     11 C11        31.4450   -1.1496   -4.4953 C.ar      12 UNK        -0.0787 
     12 C12        31.0524   -2.2960   -5.1885 C.ar      12 UNK        -0.0862 
     13 C13        30.5913   -3.4221   -4.5007 C.ar      12 UNK        -0.0733 
     14 C14        30.5690   -3.4060   -3.1028 C.ar      12 UNK        -0.0832 
     15 C15        30.1370   -4.6691   -5.2526 C.3       12 UNK         0.0240 
     16 S16        29.0326   -4.3204   -6.6638 S.3       12 UNK        -0.2522 
     17 C17        27.5734   -3.5668   -5.8645 C.3       12 UNK        -0.0967 
     18 CA         27.1257   -2.2728   -6.5956 C.3       5 UNK         0.0660 
     19 N          25.6804   -2.0620   -6.5110 N.am      5 UNK        -0.4015 
     20 C          24.8515   -2.0157   -7.5644 C.2       4 UNK         0.4946 
     21 O          25.1860   -2.2939   -8.7165 O.2       4 UNK        -0.5353 
     22 CA         23.3954   -1.5731   -7.3133 C.3       4 UNK         0.0277 
     23 CB         22.4658   -2.7971   -7.2662 C.3       4 UNK        -0.1981 
     24 N          23.1971   -0.7779   -6.0984 N.am      4 UNK        -0.4209 
     25 C          23.8077    0.3803   -5.8082 C.2       3 UNK         0.4942 
     26 O          24.5913    0.9543   -6.5629 O.2       3 UNK        -0.5208 
     27 CA         23.5659    0.9555   -4.4022 C.3       3 UNK         0.0250 
     28 CB         22.3969    1.9524   -4.4277 C.3       3 UNK        -0.1990 
     29 N          23.3283   -0.0537   -3.3582 N.am      3 UNK        -0.4232 
     30 C          24.1236   -1.0962   -3.0730 C.2       2 UNK         0.4993 
     31 O          25.1428   -1.3824   -3.7100 O.2       2 UNK        -0.5286 
     32 CA         23.6640   -2.0154   -1.9327 C.3       2 UNK         0.0209 
     33 CB         22.7310   -3.1089   -2.4782 C.3       2 UNK        -0.1931 
     34 N          24.8073   -2.6525   -1.2802 N.am      2 UNK        -0.4546 
     35 C          25.6580   -2.0331   -0.4499 C.2       1 UNK         0.5154 
     36 O          25.5167   -0.8661   -0.0805 O.2       1 UNK        -0.5181 
     37 C          27.8693   -1.0218   -6.0911 C.2       5 UNK         0.5014 
     38 O          28.7969   -0.5668   -6.7593 O.2       5 UNK        -0.5248 
     39 N          27.4429   -0.4599   -4.9487 N.am      6 UNK        -0.4434 
     40 CA         28.1138    0.6485   -4.2610 C.3       6 UNK         0.0363 
     41 CB         27.4444    0.8959   -2.9007 C.3       6 UNK        -0.1936 
     42 C          28.2086    1.9577   -5.0639 C.2       6 UNK         0.5081 
     43 O          29.1639    2.7072   -4.8604 O.2       6 UNK        -0.5248 
     44 N          27.2404    2.2123   -5.9541 N.am      7 UNK        -0.4718 
     45 CA         27.2228    3.3739   -6.8480 C.3       7 UNK         0.0273 
     46 CB         25.8573    4.0756   -6.7289 C.3       7 UNK        -0.1935 
     47 C          27.5309    2.9901   -8.3079 C.2       7 UNK         0.5018 
     48 O          27.3882    3.8422   -9.1872 O.2       7 UNK        -0.5186 
     49 N          27.9309    1.7351   -8.5610 N.am      8 UNK        -0.4240 
     50 CA         28.2912    1.2401   -9.8903 C.3       8 UNK         0.0235 
     51 CB         28.0566   -0.2799   -9.9442 C.3       8 UNK        -0.2000 
     52 C          29.7499    1.5757  -10.2402 C.2       8 UNK         0.4941 
     53 O          30.5379    1.9565   -9.3701 O.2       8 UNK        -0.5273 
     54 N          30.0979    1.3643  -11.5172 N.am      9 UNK        -0.4262 
     55 CA         31.4341    1.5745  -12.0894 C.3       9 UNK         0.0264 
     56 CB         31.3533    1.4155  -13.6169 C.3       9 UNK        -0.1955 
     57 C          32.5414    0.6690  -11.5120 C.2       9 UNK         0.5031 
     58 O          33.7177    0.9452  -11.7504 O.2       9 UNK        -0.5390 
     59 N          32.1643   -0.3673  -10.7483 N.am      10 UNK        -0.4204 
     60 CA         33.0478   -1.3004  -10.0403 C.3       10 UNK         0.0237 
     61 CB         32.1830   -2.3093   -9.2654 C.3       10 UNK        -0.1985 
     62 C          34.0635   -0.6313   -9.0928 C.2       10 UNK         0.4970 
     63 O          35.1569   -1.1711   -8.9192 O.2       10 UNK        -0.4914 
     64 N          33.6962    0.5244   -8.5249 N.am      11 UNK        -0.4285 
     65 CA         34.5680    1.3783   -7.7016 C.3       11 UNK         0.1007 
     66 C          35.0454    2.6586   -8.4498 C.2       11 UNK         0.5703 
     67 N          34.8710    2.7780   -9.7613 N.am      11 UNK        -0.7361 
     68 O          35.6098    3.5609   -7.8353 O.2       11 UNK        -0.4986 
     69 C69        33.9164    1.7029   -6.3307 C.3       12 UNK        -0.0947 
     70 S70        33.7004    0.2096   -5.3066 S.3       12 UNK        -0.2240 
     71 C71        31.8907    0.0877   -5.2580 C.3       12 UNK         0.0194 
     72 H72        24.8033   -6.8272    0.1724 H         1 UNK         0.0906 
     73 H73        26.4756   -6.8200   -0.3917 H         1 UNK         0.0906 
     74 H74        26.1233   -7.0812    1.3172 H         1 UNK         0.0906 
     75 H75        27.2511   -4.7505   -0.7770 H         1 UNK         0.3140 
     76 H76        26.9785   -2.6149    1.1145 H         1 UNK         0.1085 
     77 H77        28.0799   -2.5073   -1.7435 H         1 UNK         0.0836 
     78 H78        28.3053   -1.2940   -0.5032 H         1 UNK         0.0836 
     79 H79        30.8833   -1.2016   -0.5076 H         1 UNK         0.0731 
     80 H80        31.9358   -2.5956   -0.5132 H         1 UNK         0.0731 
     81 H81        31.7101   -0.2534   -2.5635 H         1 UNK         0.1312 
     82 H82        31.0791   -2.3012   -6.2688 H         1 UNK         0.1406 
     83 H83        30.2421   -4.2870   -2.5682 H         1 UNK         0.1631 
     84 H84        29.6281   -5.3627   -4.5814 H         1 UNK         0.0717 
     85 H85        31.0203   -5.1907   -5.6230 H         1 UNK         0.0717 
     86 H86        26.7791   -4.3139   -5.9071 H         1 UNK         0.0934 
     87 H87        27.7538   -3.3926   -4.8017 H         1 UNK         0.0934 
     88 H88        27.3984   -2.3730   -7.6484 H         1 UNK         0.0739 
     89 H89        25.3154   -1.8252   -5.5934 H         1 UNK         0.3093 
     90 H90        23.1014   -0.9490   -8.1597 H         1 UNK         0.0818 
     91 H91        21.4194   -2.5001   -7.1935 H         1 UNK         0.0819 
     92 H92        22.5662   -3.3989   -8.1707 H         1 UNK         0.0819 
     93 H93        22.6930   -3.4442   -6.4179 H         1 UNK         0.0819 
     94 H94        22.5757   -1.1660   -5.4043 H         1 UNK         0.3041 
     95 H95        24.4657    1.5056   -4.1258 H         1 UNK         0.0784 
     96 H96        22.5597    2.7251   -5.1809 H         1 UNK         0.0793 
     97 H97        21.4513    1.4621   -4.6626 H         1 UNK         0.0793 
     98 H98        22.2849    2.4589   -3.4688 H         1 UNK         0.0793 
     99 H99        22.5012    0.0842   -2.7945 H         1 UNK         0.3024 
    100 H100       23.1263   -1.4213   -1.1900 H         1 UNK         0.1171 
    101 H101       23.2237   -3.7206   -3.2356 H         1 UNK         0.0786 
    102 H102       21.8417   -2.6751   -2.9374 H         1 UNK         0.0786 
    103 H103       22.3901   -3.7718   -1.6825 H         1 UNK         0.0786 
    104 H104       25.0181   -3.6018   -1.5496 H         1 UNK         0.2977 
    105 H105       26.6455   -0.8654   -4.4598 H         1 UNK         0.3127 
    106 H106       29.1351    0.3229   -4.0670 H         1 UNK         0.0770 
    107 H107       26.4268    1.2668   -3.0088 H         1 UNK         0.0814 
    108 H108       27.9998    1.6356   -2.3228 H         1 UNK         0.0814 
    109 H109       27.4032   -0.0152   -2.3066 H         1 UNK         0.0814 
    110 H110       26.4780    1.5516   -6.0730 H         1 UNK         0.2983 
    111 H111       27.9895    4.0929   -6.5519 H         1 UNK         0.0947 
    112 H112       25.8507    5.0138   -7.2851 H         1 UNK         0.0806 
    113 H113       25.6212    4.3143   -5.6919 H         1 UNK         0.0806 
    114 H114       25.0491    3.4609   -7.1249 H         1 UNK         0.0806 
    115 H115       28.1206    1.1122   -7.7829 H         1 UNK         0.3000 
    116 H116       27.6423    1.7136  -10.6306 H         1 UNK         0.0850 
    117 H117       28.1472   -0.6593  -10.9625 H         1 UNK         0.0810 
    118 H118       27.0561   -0.5374   -9.5973 H         1 UNK         0.0810 
    119 H119       28.7745   -0.8261   -9.3320 H         1 UNK         0.0810 
    120 H120       29.3883    1.0402  -12.1595 H         1 UNK         0.3040 
    121 H121       31.7249    2.6039  -11.8690 H         1 UNK         0.0766 
    122 H122       32.3219    1.6044  -14.0824 H         1 UNK         0.0812 
    123 H123       30.6460    2.1206  -14.0541 H         1 UNK         0.0812 
    124 H124       31.0466    0.4084  -13.9025 H         1 UNK         0.0812 
    125 H125       31.1738   -0.5013  -10.6131 H         1 UNK         0.3205 
    126 H126       33.6196   -1.8427  -10.7959 H         1 UNK         0.0754 
    127 H127       32.8026   -3.0130   -8.7073 H         1 UNK         0.0769 
    128 H128       31.5563   -2.8958   -9.9375 H         1 UNK         0.0769 
    129 H129       31.5294   -1.8099   -8.5489 H         1 UNK         0.0769 
    130 H130       32.7845    0.9053   -8.7401 H         1 UNK         0.2981 
    131 H131       35.4943    0.8429   -7.4870 H         1 UNK         0.0541 
    132 H132       35.1981    3.6134  -10.2194 H         1 UNK         0.3459 
    133 H133       34.4640    2.0314  -10.3149 H         1 UNK         0.3459 
    134 H134       32.9597    2.2097   -6.4700 H         1 UNK         0.0612 
    135 H135       34.5417    2.3873   -5.7549 H         1 UNK         0.0612 
    136 H136       31.4808    0.9816   -4.7859 H         1 UNK         0.0624 
    137 H137       31.5010    0.0690   -6.2774 H         1 UNK         0.0624 
@<TRIPOS>BOND
     1    1    2 1    
     2    1   72 1    
     3    1   73 1    
     4    1   74 1    
     5    2    3 2    
     6    2    4 am   BACKBONE|DICT|INTERRES
     7    4    5 1    
     8    4   75 1    
     9    5    6 1    
    10    5   35 1    
    11    5   76 1    
    12    6    7 1    
    13    6   77 1    
    14    6   78 1    
    15    7    8 1    
    16    8    9 1    
    17    8   79 1    
    18    8   80 1    
    19    9   10 ar   
    20    9   14 ar   
    21   10   11 ar   
    22   10   81 1    
    23   11   12 ar   
    24   11   71 1    
    25   12   13 ar   
    26   12   82 1    
    27   13   14 ar   
    28   13   15 1    
    29   14   83 1    
    30   15   16 1    
    31   15   84 1    
    32   15   85 1    
    33   16   17 1    
    34   17   18 1    
    35   17   86 1    
    36   17   87 1    
    37   18   19 1    
    38   18   37 1    
    39   18   88 1    
    40   19   20 am   BACKBONE|DICT|INTERRES
    41   19   89 1    
    42   20   21 2    
    43   20   22 1    
    44   22   23 1    
    45   22   24 1    
    46   22   90 1    
    47   23   91 1    
    48   23   92 1    
    49   23   93 1    
    50   24   25 am   BACKBONE|DICT|INTERRES
    51   24   94 1    
    52   25   26 2    
    53   25   27 1    
    54   27   28 1    
    55   27   29 1    
    56   27   95 1    
    57   28   96 1    
    58   28   97 1    
    59   28   98 1    
    60   29   30 am   BACKBONE|DICT|INTERRES
    61   29   99 1    
    62   30   31 2    
    63   30   32 1    
    64   32   33 1    
    65   32   34 1    
    66   32  100 1    
    67   33  101 1    
    68   33  102 1    
    69   33  103 1    
    70   34   35 am   BACKBONE|DICT|INTERRES
    71   34  104 1    
    72   35   36 2    
    73   37   38 2    
    74   37   39 am   BACKBONE|DICT|INTERRES
    75   39   40 1    
    76   39  105 1    
    77   40   41 1    
    78   40   42 1    
    79   40  106 1    
    80   41  107 1    
    81   41  108 1    
    82   41  109 1    
    83   42   43 2    
    84   42   44 am   BACKBONE|DICT|INTERRES
    85   44   45 1    
    86   44  110 1    
    87   45   46 1    
    88   45   47 1    
    89   45  111 1    
    90   46  112 1    
    91   46  113 1    
    92   46  114 1    
    93   47   48 2    
    94   47   49 am   BACKBONE|DICT|INTERRES
    95   49   50 1    
    96   49  115 1    
    97   50   51 1    
    98   50   52 1    
    99   50  116 1    
   100   51  117 1    
   101   51  118 1    
   102   51  119 1    
   103   52   53 2    
   104   52   54 am   BACKBONE|DICT|INTERRES
   105   54   55 1    
   106   54  120 1    
   107   55   56 1    
   108   55   57 1    
   109   55  121 1    
   110   56  122 1    
   111   56  123 1    
   112   56  124 1    
   113   57   58 2    
   114   57   59 am   BACKBONE|DICT|INTERRES
   115   59   60 1    
   116   59  125 1    
   117   60   61 1    
   118   60   62 1    
   119   60  126 1    
   120   61  127 1    
   121   61  128 1    
   122   61  129 1    
   123   62   63 2    
   124   62   64 am   BACKBONE|DICT|INTERRES
   125   64   65 1    
   126   64  130 1    
   127   65   66 1    
   128   65   69 1    
   129   65  131 1    
   130   66   67 am   BACKBONE|DICT|INTERRES
   131   66   68 2    
   132   67  132 1    
   133   67  133 1    
   134   69   70 1    
   135   69  134 1    
   136   69  135 1    
   137   70   71 1    
   138   71  136 1    
   139   71  137 1    
@<TRIPOS>SUBSTRUCTURE
     1 UNK         1 GROUP             0       ****    0 ROOT    
