@<TRIPOS>MOLECULE
3R137
137   139    1
SMALL
USER_CHARGES


@<TRIPOS>ATOM
      1 CA         31.3995    0.2852    0.5754 C.3       0 UNK        -0.2020 
      2 C          30.2944   -0.7024    0.2323 C.2       0 UNK         0.4855 
      3 O          29.4065   -0.9315    1.0543 O.2       0 UNK        -0.5197 
      4 N          30.3495   -1.2798   -0.9750 N.am      1 UNK        -0.4892 
      5 CA         29.3812   -2.2186   -1.5559 C.3       1 UNK         0.0835 
      6 C6         29.2635   -3.5655   -0.7815 C.3       12 UNK        -0.0855 
      7 S7         30.8823   -4.3625   -0.4897 S.3       12 UNK        -0.2931 
      8 C8         30.9472   -5.6202   -1.8032 C.3       12 UNK         0.0378 
      9 C9         31.0499   -5.0060   -3.1926 C.ar      12 UNK        -0.0802 
     10 C10        32.1997   -4.3047   -3.5733 C.ar      12 UNK        -0.0944 
     11 C11        32.3198   -3.7727   -4.8617 C.ar      12 UNK        -0.0787 
     12 C12        31.2724   -3.9573   -5.7712 C.ar      12 UNK        -0.0862 
     13 C13        30.1119   -4.6410   -5.4000 C.ar      12 UNK        -0.0733 
     14 C14        30.0080   -5.1681   -4.1101 C.ar      12 UNK        -0.0832 
     15 C15        28.9757   -4.8118   -6.4001 C.3       12 UNK         0.0240 
     16 S16        27.4281   -4.0356   -5.8342 S.3       12 UNK        -0.2522 
     17 C17        27.9262   -2.2927   -5.6264 C.3       12 UNK        -0.0967 
     18 CA         27.3905   -1.3760   -6.7468 C.3       5 UNK         0.0660 
     19 N          25.9280   -1.4106   -6.8294 N.am      5 UNK        -0.4015 
     20 C          25.1816   -0.7597   -7.7316 C.2       4 UNK         0.4946 
     21 O          25.6542   -0.0800   -8.6429 O.2       4 UNK        -0.5353 
     22 CA         23.6546   -0.8153   -7.5618 C.3       4 UNK         0.0277 
     23 CB         23.0587   -1.8919   -8.4820 C.3       4 UNK        -0.1981 
     24 N          23.1923   -1.0369   -6.1855 N.am      4 UNK        -0.4209 
     25 C          23.5095   -0.2921   -5.1152 C.2       3 UNK         0.4942 
     26 O          24.2939    0.6586   -5.1534 O.2       3 UNK        -0.5208 
     27 CA         22.8408   -0.6558   -3.7758 C.3       3 UNK         0.0250 
     28 CB         22.0159   -1.9647   -3.8040 C.3       3 UNK        -0.1990 
     29 N          23.8012   -0.6741   -2.6669 N.am      3 UNK        -0.4232 
     30 C          24.8705   -1.4725   -2.5303 C.2       2 UNK         0.4993 
     31 O          25.2160   -2.3199   -3.3572 O.2       2 UNK        -0.5286 
     32 CA         25.6318   -1.3243   -1.2011 C.3       2 UNK         0.0209 
     33 CB         24.8078   -1.9112   -0.0404 C.3       2 UNK        -0.1931 
     34 N          26.9432   -1.9756   -1.2035 N.am      2 UNK        -0.4546 
     35 C          28.0424   -1.4813   -1.7866 C.2       1 UNK         0.5154 
     36 O          28.0475   -0.4508   -2.4648 O.2       1 UNK        -0.5181 
     37 C          27.9566    0.0465   -6.5577 C.2       5 UNK         0.5014 
     38 O          29.0970    0.2918   -6.9553 O.2       5 UNK        -0.5248 
     39 N          27.1823    0.9644   -5.9622 N.am      6 UNK        -0.4434 
     40 CA         27.5667    2.3676   -5.7978 C.3       6 UNK         0.0363 
     41 CB         26.6736    3.0118   -4.7263 C.3       6 UNK        -0.1936 
     42 C          27.5046    3.1721   -7.1098 C.2       6 UNK         0.5081 
     43 O          28.1354    4.2263   -7.1862 O.2       6 UNK        -0.5248 
     44 N          26.7535    2.6804   -8.1054 N.am      7 UNK        -0.4718 
     45 CA         26.5416    3.3411   -9.3931 C.3       7 UNK         0.0273 
     46 CB         25.0305    3.4468   -9.6623 C.3       7 UNK        -0.1935 
     47 C          27.2411    2.5944  -10.5362 C.2       7 UNK         0.5018 
     48 O          27.9480    3.2266  -11.3212 O.2       7 UNK        -0.5186 
     49 N          27.0163    1.2762  -10.6282 N.am      8 UNK        -0.4240 
     50 CA         27.4997    0.4286  -11.7184 C.3       8 UNK         0.0235 
     51 CB         26.6471   -0.8502  -11.7975 C.3       8 UNK        -0.2000 
     52 C          28.9895    0.0944  -11.5746 C.2       8 UNK         0.4941 
     53 O          29.7613    0.3505  -12.4995 O.2       8 UNK        -0.5273 
     54 N          29.3631   -0.4735  -10.4199 N.am      9 UNK        -0.4262 
     55 CA         30.7460   -0.8446  -10.1050 C.3       9 UNK         0.0264 
     56 CB         30.7476   -1.9944   -9.0851 C.3       9 UNK        -0.1955 
     57 C          31.5736    0.3468   -9.5920 C.2       9 UNK         0.5031 
     58 O          32.7940    0.3429   -9.7561 O.2       9 UNK        -0.5390 
     59 N          30.8918    1.3317   -8.9873 N.am      10 UNK        -0.4204 
     60 CA         31.4266    2.5328   -8.3377 C.3       10 UNK         0.0237 
     61 CB         32.1323    3.4539   -9.3559 C.3       10 UNK        -0.1985 
     62 C          32.2894    2.2057   -7.1026 C.2       10 UNK         0.4970 
     63 O          33.2884    2.8836   -6.8538 O.2       10 UNK        -0.4914 
     64 N          31.8770    1.1830   -6.3447 N.am      11 UNK        -0.4285 
     65 CA         32.5436    0.7167   -5.1179 C.3       11 UNK         0.1007 
     66 C          31.5768    0.1691   -4.0337 C.2       11 UNK         0.5703 
     67 N          30.2649    0.2337   -4.2235 N.am      11 UNK        -0.7361 
     68 O          32.0236   -0.2769   -2.9801 O.2       11 UNK        -0.4986 
     69 C69        33.7604   -0.2074   -5.3988 C.3       12 UNK        -0.0947 
     70 S70        33.3749   -1.6693   -6.4224 S.3       12 UNK        -0.2240 
     71 C71        33.6137   -3.0719   -5.2737 C.3       12 UNK         0.0194 
     72 H72        31.9297   -0.0408    1.4698 H         1 UNK         0.0906 
     73 H73        32.1252    0.3808   -0.2325 H         1 UNK         0.0906 
     74 H74        30.9758    1.2704    0.7687 H         1 UNK         0.0906 
     75 H75        31.0838   -0.9891   -1.6203 H         1 UNK         0.3140 
     76 H76        29.7588   -2.4520   -2.5531 H         1 UNK         0.1085 
     77 H77        28.8037   -3.4126    0.1962 H         1 UNK         0.0836 
     78 H78        28.6173   -4.2608   -1.3204 H         1 UNK         0.0836 
     79 H79        31.8171   -6.2566   -1.6346 H         1 UNK         0.0731 
     80 H80        30.0753   -6.2713   -1.7224 H         1 UNK         0.0731 
     81 H81        33.0081   -4.1871   -2.8644 H         1 UNK         0.1312 
     82 H82        31.3622   -3.5735   -6.7765 H         1 UNK         0.1406 
     83 H83        29.1137   -5.7065   -3.8263 H         1 UNK         0.1631 
     84 H84        29.2422   -4.3934   -7.3720 H         1 UNK         0.0717 
     85 H85        28.7993   -5.8761   -6.5610 H         1 UNK         0.0717 
     86 H86        27.5512   -1.9590   -4.6587 H         1 UNK         0.0934 
     87 H87        29.0130   -2.2218   -5.5608 H         1 UNK         0.0934 
     88 H88        27.7729   -1.7435   -7.7008 H         1 UNK         0.0739 
     89 H89        25.4602   -1.9358   -6.1030 H         1 UNK         0.3093 
     90 H90        23.2674    0.1559   -7.8769 H         1 UNK         0.0818 
     91 H91        21.9689   -1.8692   -8.4683 H         1 UNK         0.0819 
     92 H92        23.3696   -1.7369   -9.5165 H         1 UNK         0.0819 
     93 H93        23.3791   -2.8936   -8.1925 H         1 UNK         0.0819 
     94 H94        22.5486   -1.8029   -6.0480 H         1 UNK         0.3041 
     95 H95        22.1490    0.1603   -3.5623 H         1 UNK         0.0784 
     96 H96        21.1950   -1.9048   -4.5197 H         1 UNK         0.0793 
     97 H97        22.6257   -2.8314   -4.0630 H         1 UNK         0.0793 
     98 H98        21.5671   -2.1621   -2.8303 H         1 UNK         0.0793 
     99 H99        23.6236    0.0058   -1.9407 H         1 UNK         0.3024 
    100 H100       25.7846   -0.2575   -1.0197 H         1 UNK         0.1171 
    101 H101       23.8393   -1.4180    0.0515 H         1 UNK         0.0786 
    102 H102       24.6173   -2.9762   -0.1804 H         1 UNK         0.0786 
    103 H103       25.3205   -1.7847    0.9136 H         1 UNK         0.0786 
    104 H104       27.0143   -2.8384   -0.6861 H         1 UNK         0.2977 
    105 H105       26.2471    0.7116   -5.6530 H         1 UNK         0.3127 
    106 H106       28.5980    2.4061   -5.4411 H         1 UNK         0.0770 
    107 H107       25.6275    3.0348   -5.0341 H         1 UNK         0.0814 
    108 H108       26.9788    4.0405   -4.5307 H         1 UNK         0.0814 
    109 H109       26.7342    2.4694   -3.7823 H         1 UNK         0.0814 
    110 H110       26.3031    1.7813   -7.9790 H         1 UNK         0.2983 
    111 H111       26.9457    4.3559   -9.3731 H         1 UNK         0.0947 
    112 H112       24.8370    3.9210  -10.6256 H         1 UNK         0.0806 
    113 H113       24.5367    4.0500   -8.9003 H         1 UNK         0.0806 
    114 H114       24.5483    2.4684   -9.6762 H         1 UNK         0.0806 
    115 H115       26.4334    0.8222   -9.9246 H         1 UNK         0.3000 
    116 H116       27.3713    0.9715  -12.6577 H         1 UNK         0.0850 
    117 H117       26.9852   -1.4952  -12.6097 H         1 UNK         0.0810 
    118 H118       25.6000   -0.6136  -11.9870 H         1 UNK         0.0810 
    119 H119       26.6927   -1.4327  -10.8767 H         1 UNK         0.0810 
    120 H120       28.6614   -0.6512   -9.7170 H         1 UNK         0.3040 
    121 H121       31.2265   -1.2101  -11.0155 H         1 UNK         0.0766 
    122 H122       30.1559   -2.8403   -9.4350 H         1 UNK         0.0812 
    123 H123       30.3571   -1.6853   -8.1160 H         1 UNK         0.0812 
    124 H124       31.7631   -2.3576   -8.9239 H         1 UNK         0.0812 
    125 H125       29.9043    1.1714   -8.8388 H         1 UNK         0.3205 
    126 H126       30.5611    3.0763   -7.9572 H         1 UNK         0.0754 
    127 H127       32.3960    4.4093   -8.9006 H         1 UNK         0.0769 
    128 H128       31.4865    3.6691  -10.2074 H         1 UNK         0.0769 
    129 H129       33.0532    3.0104   -9.7355 H         1 UNK         0.0769 
    130 H130       31.0433    0.6762   -6.6210 H         1 UNK         0.2981 
    131 H131       32.9485    1.6068   -4.6329 H         1 UNK         0.0541 
    132 H132       29.8886    0.5724   -5.0960 H         1 UNK         0.3459 
    133 H133       29.6248   -0.0511   -3.4902 H         1 UNK         0.3459 
    134 H134       34.2419   -0.5076   -4.4674 H         1 UNK         0.0612 
    135 H135       34.5191    0.3620   -5.9371 H         1 UNK         0.0612 
    136 H136       34.1656   -2.7441   -4.3923 H         1 UNK         0.0624 
    137 H137       34.2485   -3.8068   -5.7697 H         1 UNK         0.0624 
@<TRIPOS>BOND
     1    1    2 1    
     2    1   72 1    
     3    1   73 1    
     4    1   74 1    
     5    2    3 2    
     6    2    4 am   BACKBONE|DICT|INTERRES
     7    4    5 1    
     8    4   75 1    
     9    5    6 1    
    10    5   35 1    
    11    5   76 1    
    12    6    7 1    
    13    6   77 1    
    14    6   78 1    
    15    7    8 1    
    16    8    9 1    
    17    8   79 1    
    18    8   80 1    
    19    9   10 ar   
    20    9   14 ar   
    21   10   11 ar   
    22   10   81 1    
    23   11   12 ar   
    24   11   71 1    
    25   12   13 ar   
    26   12   82 1    
    27   13   14 ar   
    28   13   15 1    
    29   14   83 1    
    30   15   16 1    
    31   15   84 1    
    32   15   85 1    
    33   16   17 1    
    34   17   18 1    
    35   17   86 1    
    36   17   87 1    
    37   18   19 1    
    38   18   37 1    
    39   18   88 1    
    40   19   20 am   BACKBONE|DICT|INTERRES
    41   19   89 1    
    42   20   21 2    
    43   20   22 1    
    44   22   23 1    
    45   22   24 1    
    46   22   90 1    
    47   23   91 1    
    48   23   92 1    
    49   23   93 1    
    50   24   25 am   BACKBONE|DICT|INTERRES
    51   24   94 1    
    52   25   26 2    
    53   25   27 1    
    54   27   28 1    
    55   27   29 1    
    56   27   95 1    
    57   28   96 1    
    58   28   97 1    
    59   28   98 1    
    60   29   30 am   BACKBONE|DICT|INTERRES
    61   29   99 1    
    62   30   31 2    
    63   30   32 1    
    64   32   33 1    
    65   32   34 1    
    66   32  100 1    
    67   33  101 1    
    68   33  102 1    
    69   33  103 1    
    70   34   35 am   BACKBONE|DICT|INTERRES
    71   34  104 1    
    72   35   36 2    
    73   37   38 2    
    74   37   39 am   BACKBONE|DICT|INTERRES
    75   39   40 1    
    76   39  105 1    
    77   40   41 1    
    78   40   42 1    
    79   40  106 1    
    80   41  107 1    
    81   41  108 1    
    82   41  109 1    
    83   42   43 2    
    84   42   44 am   BACKBONE|DICT|INTERRES
    85   44   45 1    
    86   44  110 1    
    87   45   46 1    
    88   45   47 1    
    89   45  111 1    
    90   46  112 1    
    91   46  113 1    
    92   46  114 1    
    93   47   48 2    
    94   47   49 am   BACKBONE|DICT|INTERRES
    95   49   50 1    
    96   49  115 1    
    97   50   51 1    
    98   50   52 1    
    99   50  116 1    
   100   51  117 1    
   101   51  118 1    
   102   51  119 1    
   103   52   53 2    
   104   52   54 am   BACKBONE|DICT|INTERRES
   105   54   55 1    
   106   54  120 1    
   107   55   56 1    
   108   55   57 1    
   109   55  121 1    
   110   56  122 1    
   111   56  123 1    
   112   56  124 1    
   113   57   58 2    
   114   57   59 am   BACKBONE|DICT|INTERRES
   115   59   60 1    
   116   59  125 1    
   117   60   61 1    
   118   60   62 1    
   119   60  126 1    
   120   61  127 1    
   121   61  128 1    
   122   61  129 1    
   123   62   63 2    
   124   62   64 am   BACKBONE|DICT|INTERRES
   125   64   65 1    
   126   64  130 1    
   127   65   66 1    
   128   65   69 1    
   129   65  131 1    
   130   66   67 am   BACKBONE|DICT|INTERRES
   131   66   68 2    
   132   67  132 1    
   133   67  133 1    
   134   69   70 1    
   135   69  134 1    
   136   69  135 1    
   137   70   71 1    
   138   71  136 1    
   139   71  137 1    
@<TRIPOS>SUBSTRUCTURE
     1 UNK         1 GROUP             0       ****    0 ROOT    
