@<TRIPOS>MOLECULE
3R137
137   139    1
SMALL
USER_CHARGES


@<TRIPOS>ATOM
      1 CA         28.8473   -5.8065   -4.0920 C.3       0 UNK        -0.2020 
      2 C          27.9797   -5.0639   -3.0873 C.2       0 UNK         0.4855 
      3 O          26.8097   -5.4082   -2.9153 O.2       0 UNK        -0.5197 
      4 N          28.5484   -4.0585   -2.4105 N.am      1 UNK        -0.4892 
      5 CA         27.8767   -3.2396   -1.3945 C.3       1 UNK         0.0835 
      6 C6         28.8671   -2.3801   -0.5562 C.3       12 UNK        -0.0855 
      7 S7         30.4233   -3.2395   -0.1176 S.3       12 UNK        -0.2931 
      8 C8         31.7110   -2.0939   -0.7314 C.3       12 UNK         0.0378 
      9 C9         31.4789   -1.6329   -2.1668 C.ar      12 UNK        -0.0802 
     10 C10        31.4721   -2.5549   -3.2172 C.ar      12 UNK        -0.0944 
     11 C11        31.2244   -2.1372   -4.5294 C.ar      12 UNK        -0.0787 
     12 C12        30.9792   -0.7837   -4.7844 C.ar      12 UNK        -0.0862 
     13 C13        31.0049    0.1530   -3.7460 C.ar      12 UNK        -0.0733 
     14 C14        31.2618   -0.2780   -2.4411 C.ar      12 UNK        -0.0832 
     15 C15        30.7667    1.6309   -4.0400 C.3       12 UNK         0.0240 
     16 S16        29.3341    2.3410   -3.1580 S.3       12 UNK        -0.2522 
     17 C17        27.9995    1.1528   -3.5185 C.3       12 UNK        -0.0967 
     18 CA         27.5518    1.1146   -5.0026 C.3       5 UNK         0.0660 
     19 N          27.0346   -0.2113   -5.3504 N.am      5 UNK        -0.4015 
     20 C          26.6477   -0.6281   -6.5637 C.2       4 UNK         0.4946 
     21 O          26.5389    0.1040   -7.5457 O.2       4 UNK        -0.5353 
     22 CA         26.3012   -2.1160   -6.6914 C.3       4 UNK         0.0277 
     23 CB         27.5684   -2.9812   -6.5886 C.3       4 UNK        -0.1981 
     24 N          25.3507   -2.5064   -5.6521 N.am      4 UNK        -0.4209 
     25 C          24.0192   -2.4753   -5.7977 C.2       3 UNK         0.4942 
     26 O          23.4492   -2.2283   -6.8611 O.2       3 UNK        -0.5208 
     27 CA         23.1689   -2.7553   -4.5442 C.3       3 UNK         0.0250 
     28 CB         22.8179   -4.2495   -4.4572 C.3       3 UNK        -0.1990 
     29 N          23.7971   -2.3339   -3.2883 N.am      3 UNK        -0.4232 
     30 C          24.1323   -1.0730   -2.9801 C.2       2 UNK         0.4993 
     31 O          23.9555   -0.1094   -3.7247 O.2       2 UNK        -0.5286 
     32 CA         24.8447   -0.8561   -1.6346 C.3       2 UNK         0.0209 
     33 CB         23.8170   -0.6971   -0.5029 C.3       2 UNK        -0.1931 
     34 N          25.8222   -1.8928   -1.2697 N.am      2 UNK        -0.4546 
     35 C          26.8260   -2.3221   -2.0486 C.2       1 UNK         0.5154 
     36 O          26.9700   -1.9797   -3.2255 O.2       1 UNK        -0.5181 
     37 C          26.5979    2.2755   -5.3518 C.2       5 UNK         0.5014 
     38 O          27.0707    3.3451   -5.7399 O.2       5 UNK        -0.5248 
     39 N          25.2792    2.0468   -5.2479 N.am      6 UNK        -0.4434 
     40 CA         24.2472    3.0001   -5.6651 C.3       6 UNK         0.0363 
     41 CB         22.8782    2.5343   -5.1448 C.3       6 UNK        -0.1936 
     42 C          24.1892    3.2271   -7.1883 C.2       6 UNK         0.5081 
     43 O          23.7048    4.2780   -7.6103 O.2       6 UNK        -0.5248 
     44 N          24.6647    2.2585   -7.9840 N.am      7 UNK        -0.4718 
     45 CA         24.7468    2.3570   -9.4395 C.3       7 UNK         0.0273 
     46 CB         24.4848    0.9828  -10.0800 C.3       7 UNK        -0.1935 
     47 C          26.1051    2.9258   -9.8711 C.2       7 UNK         0.5018 
     48 O          26.1271    3.9070  -10.6161 O.2       7 UNK        -0.5186 
     49 N          27.2072    2.3208   -9.4039 N.am      8 UNK        -0.4240 
     50 CA         28.5744    2.7099   -9.7552 C.3       8 UNK         0.0235 
     51 CB         28.8837    2.3151  -11.2157 C.3       8 UNK        -0.2000 
     52 C          29.5852    2.0395   -8.8202 C.2       8 UNK         0.4941 
     53 O          29.3015    0.9861   -8.2470 O.2       8 UNK        -0.5273 
     54 N          30.7988    2.6019   -8.7567 N.am      9 UNK        -0.4262 
     55 CA         31.9609    2.0258   -8.0708 C.3       9 UNK         0.0264 
     56 CB         32.9736    3.1451   -7.7664 C.3       9 UNK        -0.1955 
     57 C          32.5820    0.8585   -8.8665 C.2       9 UNK         0.5031 
     58 O          33.7744    0.8824   -9.1775 O.2       9 UNK        -0.5390 
     59 N          31.7562   -0.1490   -9.1813 N.am      10 UNK        -0.4204 
     60 CA         32.0888   -1.3273   -9.9917 C.3       10 UNK         0.0237 
     61 CB         30.8146   -2.1633  -10.1964 C.3       10 UNK        -0.1985 
     62 C          33.2173   -2.2008   -9.4137 C.2       10 UNK         0.4970 
     63 O          33.8999   -2.8889  -10.1733 O.2       10 UNK        -0.4914 
     64 N          33.3934   -2.1440   -8.0899 N.am      11 UNK        -0.4285 
     65 CA         34.4780   -2.7923   -7.3445 C.3       11 UNK         0.1007 
     66 C          35.8386   -2.0374   -7.4261 C.2       11 UNK         0.5703 
     67 N          35.9190   -0.8437   -8.0054 N.am      11 UNK        -0.7361 
     68 O          36.8518   -2.5551   -6.9622 O.2       11 UNK        -0.4986 
     69 C69        34.0582   -3.0455   -5.8734 C.3       12 UNK        -0.0947 
     70 S70        32.6721   -4.2266   -5.7260 S.3       12 UNK        -0.2240 
     71 C71        31.2052   -3.1414   -5.6759 C.3       12 UNK         0.0194 
     72 H72        28.7531   -6.8821   -3.9449 H         1 UNK         0.0906 
     73 H73        28.5313   -5.5745   -5.1082 H         1 UNK         0.0906 
     74 H74        29.9008   -5.5475   -3.9890 H         1 UNK         0.0906 
     75 H75        29.5036   -3.7925   -2.6000 H         1 UNK         0.3140 
     76 H76        27.3586   -3.9245   -0.7195 H         1 UNK         0.1085 
     77 H77        28.3872   -2.0727    0.3746 H         1 UNK         0.0836 
     78 H78        29.1038   -1.4479   -1.0703 H         1 UNK         0.0836 
     79 H79        32.6815   -2.5880   -0.6689 H         1 UNK         0.0731 
     80 H80        31.7615   -1.2383   -0.0561 H         1 UNK         0.0731 
     81 H81        31.6592   -3.5998   -3.0106 H         1 UNK         0.1312 
     82 H82        30.7699   -0.4568   -5.7938 H         1 UNK         0.1406 
     83 H83        31.2734    0.4457   -1.6372 H         1 UNK         0.1631 
     84 H84        30.6240    1.7970   -5.1067 H         1 UNK         0.0717 
     85 H85        31.6599    2.1935   -3.7651 H         1 UNK         0.0717 
     86 H86        28.3653    0.1757   -3.2041 H         1 UNK         0.0934 
     87 H87        27.1552    1.3641   -2.8602 H         1 UNK         0.0934 
     88 H88        28.4309    1.2423   -5.6353 H         1 UNK         0.0739 
     89 H89        27.0495   -0.8962   -4.5952 H         1 UNK         0.3093 
     90 H90        25.8636   -2.2768   -7.6792 H         1 UNK         0.0818 
     91 H91        28.3058   -2.6825   -7.3351 H         1 UNK         0.0819 
     92 H92        28.0405   -2.8961   -5.6092 H         1 UNK         0.0819 
     93 H93        27.3404   -4.0331   -6.7601 H         1 UNK         0.0819 
     94 H94        25.7329   -2.6671   -4.7267 H         1 UNK         0.3041 
     95 H95        22.2404   -2.1901   -4.6505 H         1 UNK         0.0784 
     96 H96        22.3295   -4.5898   -5.3715 H         1 UNK         0.0793 
     97 H97        23.7075   -4.8648   -4.3139 H         1 UNK         0.0793 
     98 H98        22.1332   -4.4499   -3.6329 H         1 UNK         0.0793 
     99 H99        24.0107   -3.0594   -2.6190 H         1 UNK         0.3024 
    100 H100       25.3952    0.0826   -1.7208 H         1 UNK         0.1171 
    101 H101       24.2965   -0.4071    0.4322 H         1 UNK         0.0786 
    102 H102       23.0879    0.0784   -0.7431 H         1 UNK         0.0786 
    103 H103       23.2641   -1.6204   -0.3254 H         1 UNK         0.0786 
    104 H104       25.7758   -2.2277   -0.3177 H         1 UNK         0.2977 
    105 H105       24.9511    1.1574   -4.8792 H         1 UNK         0.3127 
    106 H106       24.4751    3.9628   -5.2026 H         1 UNK         0.0770 
    107 H107       22.6034    1.5606   -5.5529 H         1 UNK         0.0814 
    108 H108       22.0927    3.2388   -5.4218 H         1 UNK         0.0814 
    109 H109       22.8727    2.4555   -4.0576 H         1 UNK         0.0814 
    110 H110       25.1202    1.4517   -7.5669 H         1 UNK         0.2983 
    111 H111       23.9719    3.0361   -9.8029 H         1 UNK         0.0947 
    112 H112       24.5005    1.0542  -11.1682 H         1 UNK         0.0806 
    113 H113       23.5070    0.5943   -9.7948 H         1 UNK         0.0806 
    114 H114       25.2325    0.2429   -9.7944 H         1 UNK         0.0806 
    115 H115       27.1261    1.5301   -8.7644 H         1 UNK         0.3000 
    116 H116       28.6681    3.7917   -9.6380 H         1 UNK         0.0850 
    117 H117       29.9109    2.5625  -11.4865 H         1 UNK         0.0810 
    118 H118       28.2380    2.8364  -11.9223 H         1 UNK         0.0810 
    119 H119       28.7548    1.2436  -11.3747 H         1 UNK         0.0810 
    120 H120       30.9707    3.4402   -9.2938 H         1 UNK         0.3040 
    121 H121       31.6340    1.6110   -7.1176 H         1 UNK         0.0766 
    122 H122       32.5269    3.9290   -7.1546 H         1 UNK         0.0812 
    123 H123       33.3541    3.6054   -8.6791 H         1 UNK         0.0812 
    124 H124       33.8313    2.7570   -7.2149 H         1 UNK         0.0812 
    125 H125       30.7868   -0.0488   -8.8873 H         1 UNK         0.3205 
    126 H126       32.4262   -0.9679  -10.9660 H         1 UNK         0.0754 
    127 H127       31.0139   -3.0341  -10.8228 H         1 UNK         0.0769 
    128 H128       30.0342   -1.5832  -10.6897 H         1 UNK         0.0769 
    129 H129       30.4137   -2.5270   -9.2494 H         1 UNK         0.0769 
    130 H130       32.7962   -1.5345   -7.5554 H         1 UNK         0.2981 
    131 H131       34.6600   -3.7658   -7.8037 H         1 UNK         0.0541 
    132 H132       35.1055   -0.3910   -8.4084 H         1 UNK         0.3459 
    133 H133       36.8140   -0.3834   -8.0482 H         1 UNK         0.3459 
    134 H134       34.8887   -3.4738   -5.3094 H         1 UNK         0.0612 
    135 H135       33.8124   -2.1076   -5.3734 H         1 UNK         0.0612 
    136 H136       31.1047   -2.6353   -6.6361 H         1 UNK         0.0624 
    137 H137       30.3198   -3.7669   -5.5760 H         1 UNK         0.0624 
@<TRIPOS>BOND
     1    1    2 1    
     2    1   72 1    
     3    1   73 1    
     4    1   74 1    
     5    2    3 2    
     6    2    4 am   BACKBONE|DICT|INTERRES
     7    4    5 1    
     8    4   75 1    
     9    5    6 1    
    10    5   35 1    
    11    5   76 1    
    12    6    7 1    
    13    6   77 1    
    14    6   78 1    
    15    7    8 1    
    16    8    9 1    
    17    8   79 1    
    18    8   80 1    
    19    9   10 ar   
    20    9   14 ar   
    21   10   11 ar   
    22   10   81 1    
    23   11   12 ar   
    24   11   71 1    
    25   12   13 ar   
    26   12   82 1    
    27   13   14 ar   
    28   13   15 1    
    29   14   83 1    
    30   15   16 1    
    31   15   84 1    
    32   15   85 1    
    33   16   17 1    
    34   17   18 1    
    35   17   86 1    
    36   17   87 1    
    37   18   19 1    
    38   18   37 1    
    39   18   88 1    
    40   19   20 am   BACKBONE|DICT|INTERRES
    41   19   89 1    
    42   20   21 2    
    43   20   22 1    
    44   22   23 1    
    45   22   24 1    
    46   22   90 1    
    47   23   91 1    
    48   23   92 1    
    49   23   93 1    
    50   24   25 am   BACKBONE|DICT|INTERRES
    51   24   94 1    
    52   25   26 2    
    53   25   27 1    
    54   27   28 1    
    55   27   29 1    
    56   27   95 1    
    57   28   96 1    
    58   28   97 1    
    59   28   98 1    
    60   29   30 am   BACKBONE|DICT|INTERRES
    61   29   99 1    
    62   30   31 2    
    63   30   32 1    
    64   32   33 1    
    65   32   34 1    
    66   32  100 1    
    67   33  101 1    
    68   33  102 1    
    69   33  103 1    
    70   34   35 am   BACKBONE|DICT|INTERRES
    71   34  104 1    
    72   35   36 2    
    73   37   38 2    
    74   37   39 am   BACKBONE|DICT|INTERRES
    75   39   40 1    
    76   39  105 1    
    77   40   41 1    
    78   40   42 1    
    79   40  106 1    
    80   41  107 1    
    81   41  108 1    
    82   41  109 1    
    83   42   43 2    
    84   42   44 am   BACKBONE|DICT|INTERRES
    85   44   45 1    
    86   44  110 1    
    87   45   46 1    
    88   45   47 1    
    89   45  111 1    
    90   46  112 1    
    91   46  113 1    
    92   46  114 1    
    93   47   48 2    
    94   47   49 am   BACKBONE|DICT|INTERRES
    95   49   50 1    
    96   49  115 1    
    97   50   51 1    
    98   50   52 1    
    99   50  116 1    
   100   51  117 1    
   101   51  118 1    
   102   51  119 1    
   103   52   53 2    
   104   52   54 am   BACKBONE|DICT|INTERRES
   105   54   55 1    
   106   54  120 1    
   107   55   56 1    
   108   55   57 1    
   109   55  121 1    
   110   56  122 1    
   111   56  123 1    
   112   56  124 1    
   113   57   58 2    
   114   57   59 am   BACKBONE|DICT|INTERRES
   115   59   60 1    
   116   59  125 1    
   117   60   61 1    
   118   60   62 1    
   119   60  126 1    
   120   61  127 1    
   121   61  128 1    
   122   61  129 1    
   123   62   63 2    
   124   62   64 am   BACKBONE|DICT|INTERRES
   125   64   65 1    
   126   64  130 1    
   127   65   66 1    
   128   65   69 1    
   129   65  131 1    
   130   66   67 am   BACKBONE|DICT|INTERRES
   131   66   68 2    
   132   67  132 1    
   133   67  133 1    
   134   69   70 1    
   135   69  134 1    
   136   69  135 1    
   137   70   71 1    
   138   71  136 1    
   139   71  137 1    
@<TRIPOS>SUBSTRUCTURE
     1 UNK         1 GROUP             0       ****    0 ROOT    
