@<TRIPOS>MOLECULE
3R137
137   139    1
SMALL
USER_CHARGES


@<TRIPOS>ATOM
      1 CA         31.1119   -0.4329   -0.7572 C.3       0 UNK        -0.2020 
      2 C          30.6973   -1.2972    0.4292 C.2       0 UNK         0.4855 
      3 O          31.1108   -1.0105    1.5510 O.2       0 UNK        -0.5197 
      4 N          29.9032   -2.3613    0.2532 N.am      1 UNK        -0.4892 
      5 CA         29.2460   -2.8142   -0.9788 C.3       1 UNK         0.0835 
      6 C6         28.9369   -4.3345   -0.9239 C.3       12 UNK        -0.0855 
      7 S7         30.4303   -5.3353   -0.5882 S.3       12 UNK        -0.2931 
      8 C8         30.5901   -6.3449   -2.0944 C.3       12 UNK         0.0378 
      9 C9         30.8362   -5.5083   -3.3422 C.ar      12 UNK        -0.0802 
     10 C10        31.9861   -4.7197   -3.4553 C.ar      12 UNK        -0.0944 
     11 C11        32.2238   -3.9723   -4.6130 C.ar      12 UNK        -0.0787 
     12 C12        31.3086   -4.0309   -5.6682 C.ar      12 UNK        -0.0862 
     13 C13        30.1458   -4.7985   -5.5583 C.ar      12 UNK        -0.0733 
     14 C14        29.9195   -5.5412   -4.3965 C.ar      12 UNK        -0.0832 
     15 C15        29.1250   -4.8203   -6.6868 C.3       12 UNK         0.0240 
     16 S16        27.5742   -4.0006   -6.1971 S.3       12 UNK        -0.2522 
     17 C17        28.1141   -2.2685   -6.0010 C.3       12 UNK        -0.0967 
     18 CA         27.3478   -1.3166   -6.9457 C.3       5 UNK         0.0660 
     19 N          25.8958   -1.3488   -6.7352 N.am      5 UNK        -0.4015 
     20 C          24.9948   -0.8247   -7.5801 C.2       4 UNK         0.4946 
     21 O          25.3038   -0.2042   -8.5982 O.2       4 UNK        -0.5353 
     22 CA         23.5056   -0.9754   -7.2211 C.3       4 UNK         0.0277 
     23 CB         22.9361   -2.2610   -7.8406 C.3       4 UNK        -0.1981 
     24 N          23.2468   -0.9678   -5.7785 N.am      4 UNK        -0.4209 
     25 C          23.5019    0.0706   -4.9712 C.2       3 UNK         0.4942 
     26 O          23.9388    1.1506   -5.3724 O.2       3 UNK        -0.5208 
     27 CA         23.3028   -0.1271   -3.4560 C.3       3 UNK         0.0250 
     28 CB         22.6854   -1.4878   -3.0561 C.3       3 UNK        -0.1990 
     29 N          24.5699    0.1057   -2.7519 N.am      3 UNK        -0.4232 
     30 C          25.7233   -0.5512   -2.9507 C.2       2 UNK         0.4993 
     31 O          25.8292   -1.5327   -3.6893 O.2       2 UNK        -0.5286 
     32 CA         26.9836    0.0384   -2.2909 C.3       2 UNK         0.0209 
     33 CB         26.7066    0.8929   -1.0322 C.3       2 UNK        -0.1931 
     34 N          28.0189   -0.9660   -2.0301 N.am      2 UNK        -0.4546 
     35 C          27.9603   -1.9832   -1.1603 C.2       1 UNK         0.5154 
     36 O          26.9767   -2.2358   -0.4601 O.2       1 UNK        -0.5181 
     37 C          27.9325    0.1051   -6.8721 C.2       5 UNK         0.5014 
     38 O          28.9755    0.3448   -7.4822 O.2       5 UNK        -0.5248 
     39 N          27.2487    1.0364   -6.1895 N.am      6 UNK        -0.4434 
     40 CA         27.6094    2.4568   -6.1598 C.3       6 UNK         0.0363 
     41 CB         26.7756    3.1836   -5.0933 C.3       6 UNK        -0.1936 
     42 C          27.4544    3.1461   -7.5282 C.2       6 UNK         0.5081 
     43 O          28.1457    4.1322   -7.7794 O.2       6 UNK        -0.5248 
     44 N          26.5745    2.6132   -8.3868 N.am      7 UNK        -0.4718 
     45 CA         26.3828    3.0643   -9.7632 C.3       7 UNK         0.0273 
     46 CB         24.8793    3.0894  -10.0867 C.3       7 UNK        -0.1935 
     47 C          27.1344    2.1576  -10.7478 C.2       7 UNK         0.5018 
     48 O          27.8373    2.6686  -11.6196 O.2       7 UNK        -0.5186 
     49 N          26.9636    0.8350  -10.6051 N.am      8 UNK        -0.4240 
     50 CA         27.4592   -0.1691  -11.5491 C.3       8 UNK         0.0235 
     51 CB         26.7396   -1.5051  -11.2998 C.3       8 UNK        -0.2000 
     52 C          28.9823   -0.3673  -11.5193 C.2       8 UNK         0.4941 
     53 O          29.5789   -0.5435  -12.5825 O.2       8 UNK        -0.5273 
     54 N          29.5777   -0.3591  -10.3194 N.am      9 UNK        -0.4262 
     55 CA         31.0029   -0.6317  -10.1017 C.3       9 UNK         0.0264 
     56 CB         31.1281   -1.8234   -9.1336 C.3       9 UNK        -0.1955 
     57 C          31.7666    0.5840   -9.5514 C.2       9 UNK         0.5031 
     58 O          32.9896    0.5042   -9.4283 O.2       9 UNK        -0.5390 
     59 N          31.0457    1.6598   -9.1944 N.am      10 UNK        -0.4204 
     60 CA         31.5128    2.8257   -8.4303 C.3       10 UNK         0.0237 
     61 CB         32.5161    3.6652   -9.2501 C.3       10 UNK        -0.1985 
     62 C          32.0444    2.4327   -7.0343 C.2       10 UNK         0.4970 
     63 O          33.0092    3.0274   -6.5506 O.2       10 UNK        -0.4914 
     64 N          31.4108    1.4213   -6.4295 N.am      11 UNK        -0.4285 
     65 CA         31.8098    0.7765   -5.1786 C.3       11 UNK         0.1007 
     66 C          30.6522    0.8969   -4.1585 C.2       11 UNK         0.5703 
     67 N          30.4702    2.0686   -3.5642 N.am      11 UNK        -0.7361 
     68 O          29.9094   -0.0501   -3.9115 O.2       11 UNK        -0.4986 
     69 C69        32.2535   -0.6834   -5.4561 C.3       12 UNK        -0.0947 
     70 S70        33.1958   -1.4266   -4.0845 S.3       12 UNK        -0.2240 
     71 C71        33.4727   -3.1091   -4.7244 C.3       12 UNK         0.0194 
     72 H72        31.3972   -1.0321   -1.6200 H         1 UNK         0.0906 
     73 H73        30.3060    0.2426   -1.0392 H         1 UNK         0.0906 
     74 H74        31.9750    0.1785   -0.4950 H         1 UNK         0.0906 
     75 H75        29.6597   -2.9043    1.0691 H         1 UNK         0.3140 
     76 H76        29.8991   -2.6522   -1.8383 H         1 UNK         0.1085 
     77 H77        28.2122   -4.5573   -0.1382 H         1 UNK         0.0836 
     78 H78        28.4757   -4.6600   -1.8582 H         1 UNK         0.0836 
     79 H79        31.4233   -7.0370   -1.9654 H         1 UNK         0.0731 
     80 H80        29.6962   -6.9612   -2.2035 H         1 UNK         0.0731 
     81 H81        32.6937   -4.6856   -2.6379 H         1 UNK         0.1312 
     82 H82        31.4951   -3.4646   -6.5697 H         1 UNK         0.1406 
     83 H83        29.0220   -6.1399   -4.3161 H         1 UNK         0.1631 
     84 H84        28.9093   -5.8549   -6.9570 H         1 UNK         0.0717 
     85 H85        29.5184   -4.3427   -7.5856 H         1 UNK         0.0717 
     86 H86        29.1852   -2.2018   -6.1932 H         1 UNK         0.0934 
     87 H87        27.9894   -1.9786   -4.9574 H         1 UNK         0.0934 
     88 H88        27.5267   -1.6625   -7.9655 H         1 UNK         0.0739 
     89 H89        25.5838   -1.7939   -5.8796 H         1 UNK         0.3093 
     90 H90        22.9796   -0.1235   -7.6575 H         1 UNK         0.0818 
     91 H91        21.8614   -2.3400   -7.6753 H         1 UNK         0.0819 
     92 H92        23.0977   -2.2776   -8.9196 H         1 UNK         0.0819 
     93 H93        23.4076   -3.1537   -7.4273 H         1 UNK         0.0819 
     94 H94        22.9099   -1.8260   -5.3664 H         1 UNK         0.3041 
     95 H95        22.6154    0.6566   -3.1342 H         1 UNK         0.0784 
     96 H96        21.7061   -1.6278   -3.5158 H         1 UNK         0.0793 
     97 H97        23.3129   -2.3331   -3.3408 H         1 UNK         0.0793 
     98 H98        22.5382   -1.5431   -1.9774 H         1 UNK         0.0793 
     99 H99        24.5875    0.9174   -2.1507 H         1 UNK         0.3024 
    100 H100       27.4161    0.6984   -3.0430 H         1 UNK         0.1171 
    101 H101       27.6367    1.2319   -0.5756 H         1 UNK         0.0786 
    102 H102       26.1520    0.3363   -0.2756 H         1 UNK         0.0786 
    103 H103       26.1327    1.7882   -1.2731 H         1 UNK         0.0786 
    104 H104       28.8488   -0.8531   -2.6090 H         1 UNK         0.2977 
    105 H105       26.3716    0.7784   -5.7575 H         1 UNK         0.3127 
    106 H106       28.6608    2.5322   -5.8766 H         1 UNK         0.0770 
    107 H107       25.7094    3.1462   -5.3186 H         1 UNK         0.0814 
    108 H108       27.0561    4.2362   -5.0339 H         1 UNK         0.0814 
    109 H109       26.9275    2.7569   -4.1032 H         1 UNK         0.0814 
    110 H110       26.0613    1.7858   -8.1083 H         1 UNK         0.2983 
    111 H111       26.7672    4.0797   -9.8857 H         1 UNK         0.0947 
    112 H112       24.7065    3.4149  -11.1135 H         1 UNK         0.0806 
    113 H113       24.3479    3.7823   -9.4342 H         1 UNK         0.0806 
    114 H114       24.4193    2.1067   -9.9736 H         1 UNK         0.0806 
    115 H115       26.3464    0.4955   -9.8678 H         1 UNK         0.3000 
    116 H116       27.1962    0.1668  -12.5548 H         1 UNK         0.0850 
    117 H117       27.0564   -2.2602  -12.0206 H         1 UNK         0.0810 
    118 H118       25.6591   -1.3974  -11.3976 H         1 UNK         0.0810 
    119 H119       26.9455   -1.8985  -10.3042 H         1 UNK         0.0810 
    120 H120       29.0223   -0.1964   -9.4874 H         1 UNK         0.3040 
    121 H121       31.4914   -0.9078  -11.0383 H         1 UNK         0.0766 
    122 H122       32.1736   -2.0861   -8.9668 H         1 UNK         0.0812 
    123 H123       30.6902   -1.6013   -8.1608 H         1 UNK         0.0812 
    124 H124       30.6323   -2.7094   -9.5302 H         1 UNK         0.0812 
    125 H125       30.0466    1.6059   -9.3308 H         1 UNK         0.3205 
    126 H126       30.6363    3.4484   -8.2537 H         1 UNK         0.0754 
    127 H127       32.7525    4.5992   -8.7391 H         1 UNK         0.0769 
    128 H128       32.1085    3.9259  -10.2269 H         1 UNK         0.0769 
    129 H129       33.4560    3.1358   -9.4088 H         1 UNK         0.0769 
    130 H130       30.5852    1.0258   -6.8738 H         1 UNK         0.2981 
    131 H131       32.6638    1.3035   -4.7491 H         1 UNK         0.0541 
    132 H132       31.0745    2.8485   -3.7704 H         1 UNK         0.3459 
    133 H133       29.7252    2.1764   -2.8971 H         1 UNK         0.3459 
    134 H134       32.8952   -0.7135   -6.3385 H         1 UNK         0.0612 
    135 H135       31.3889   -1.3026   -5.6906 H         1 UNK         0.0612 
    136 H136       33.8120   -3.0573   -5.7602 H         1 UNK         0.0624 
    137 H137       34.2872   -3.5664   -4.1607 H         1 UNK         0.0624 
@<TRIPOS>BOND
     1    1    2 1    
     2    1   72 1    
     3    1   73 1    
     4    1   74 1    
     5    2    3 2    
     6    2    4 am   BACKBONE|DICT|INTERRES
     7    4    5 1    
     8    4   75 1    
     9    5    6 1    
    10    5   35 1    
    11    5   76 1    
    12    6    7 1    
    13    6   77 1    
    14    6   78 1    
    15    7    8 1    
    16    8    9 1    
    17    8   79 1    
    18    8   80 1    
    19    9   10 ar   
    20    9   14 ar   
    21   10   11 ar   
    22   10   81 1    
    23   11   12 ar   
    24   11   71 1    
    25   12   13 ar   
    26   12   82 1    
    27   13   14 ar   
    28   13   15 1    
    29   14   83 1    
    30   15   16 1    
    31   15   84 1    
    32   15   85 1    
    33   16   17 1    
    34   17   18 1    
    35   17   86 1    
    36   17   87 1    
    37   18   19 1    
    38   18   37 1    
    39   18   88 1    
    40   19   20 am   BACKBONE|DICT|INTERRES
    41   19   89 1    
    42   20   21 2    
    43   20   22 1    
    44   22   23 1    
    45   22   24 1    
    46   22   90 1    
    47   23   91 1    
    48   23   92 1    
    49   23   93 1    
    50   24   25 am   BACKBONE|DICT|INTERRES
    51   24   94 1    
    52   25   26 2    
    53   25   27 1    
    54   27   28 1    
    55   27   29 1    
    56   27   95 1    
    57   28   96 1    
    58   28   97 1    
    59   28   98 1    
    60   29   30 am   BACKBONE|DICT|INTERRES
    61   29   99 1    
    62   30   31 2    
    63   30   32 1    
    64   32   33 1    
    65   32   34 1    
    66   32  100 1    
    67   33  101 1    
    68   33  102 1    
    69   33  103 1    
    70   34   35 am   BACKBONE|DICT|INTERRES
    71   34  104 1    
    72   35   36 2    
    73   37   38 2    
    74   37   39 am   BACKBONE|DICT|INTERRES
    75   39   40 1    
    76   39  105 1    
    77   40   41 1    
    78   40   42 1    
    79   40  106 1    
    80   41  107 1    
    81   41  108 1    
    82   41  109 1    
    83   42   43 2    
    84   42   44 am   BACKBONE|DICT|INTERRES
    85   44   45 1    
    86   44  110 1    
    87   45   46 1    
    88   45   47 1    
    89   45  111 1    
    90   46  112 1    
    91   46  113 1    
    92   46  114 1    
    93   47   48 2    
    94   47   49 am   BACKBONE|DICT|INTERRES
    95   49   50 1    
    96   49  115 1    
    97   50   51 1    
    98   50   52 1    
    99   50  116 1    
   100   51  117 1    
   101   51  118 1    
   102   51  119 1    
   103   52   53 2    
   104   52   54 am   BACKBONE|DICT|INTERRES
   105   54   55 1    
   106   54  120 1    
   107   55   56 1    
   108   55   57 1    
   109   55  121 1    
   110   56  122 1    
   111   56  123 1    
   112   56  124 1    
   113   57   58 2    
   114   57   59 am   BACKBONE|DICT|INTERRES
   115   59   60 1    
   116   59  125 1    
   117   60   61 1    
   118   60   62 1    
   119   60  126 1    
   120   61  127 1    
   121   61  128 1    
   122   61  129 1    
   123   62   63 2    
   124   62   64 am   BACKBONE|DICT|INTERRES
   125   64   65 1    
   126   64  130 1    
   127   65   66 1    
   128   65   69 1    
   129   65  131 1    
   130   66   67 am   BACKBONE|DICT|INTERRES
   131   66   68 2    
   132   67  132 1    
   133   67  133 1    
   134   69   70 1    
   135   69  134 1    
   136   69  135 1    
   137   70   71 1    
   138   71  136 1    
   139   71  137 1    
@<TRIPOS>SUBSTRUCTURE
     1 UNK         1 GROUP             0       ****    0 ROOT    
