@<TRIPOS>MOLECULE
3R137
137   139    1
SMALL
USER_CHARGES


@<TRIPOS>ATOM
      1 CA         24.6193   -5.8654   -5.3436 C.3       0 UNK        -0.2020 
      2 C          24.8333   -5.2412   -3.9737 C.2       0 UNK         0.4855 
      3 O          23.8851   -4.7259   -3.3806 O.2       0 UNK        -0.5197 
      4 N          26.0738   -5.2672   -3.4699 N.am      1 UNK        -0.4892 
      5 CA         26.4845   -4.6757   -2.1922 C.3       1 UNK         0.0835 
      6 C6         27.9412   -5.0455   -1.8104 C.3       12 UNK        -0.0855 
      7 S7         29.1691   -4.8266   -3.1510 S.3       12 UNK        -0.2931 
      8 C8         30.6690   -4.4151   -2.2071 C.3       12 UNK         0.0378 
      9 C9         31.0820   -2.9611   -2.3889 C.ar      12 UNK        -0.0802 
     10 C10        32.1644   -2.6468   -3.2158 C.ar      12 UNK        -0.0944 
     11 C11        32.6103   -1.3282   -3.3324 C.ar      12 UNK        -0.0787 
     12 C12        31.9549   -0.3146   -2.6280 C.ar      12 UNK        -0.0862 
     13 C13        30.8610   -0.6111   -1.8084 C.ar      12 UNK        -0.0733 
     14 C14        30.4260   -1.9377   -1.6952 C.ar      12 UNK        -0.0832 
     15 C15        30.1940    0.4958   -1.0000 C.3       12 UNK         0.0240 
     16 S16        29.3898    1.7547   -2.0453 S.3       12 UNK        -0.2522 
     17 C17        27.9707    0.8292   -2.7122 C.3       12 UNK        -0.0967 
     18 CA         27.8949    0.8990   -4.2592 C.3       5 UNK         0.0660 
     19 N          27.2924   -0.3093   -4.8199 N.am      5 UNK        -0.4015 
     20 C          27.1830   -0.5955   -6.1238 C.2       4 UNK         0.4946 
     21 O          27.6726    0.0860   -7.0257 O.2       4 UNK        -0.5353 
     22 CA         26.3374   -1.8293   -6.4775 C.3       4 UNK         0.0277 
     23 CB         27.1772   -3.1147   -6.3992 C.3       4 UNK        -0.1981 
     24 N          25.1582   -1.9483   -5.6127 N.am      4 UNK        -0.4209 
     25 C          24.1106   -1.1106   -5.6462 C.2       3 UNK         0.4942 
     26 O          24.0009   -0.1872   -6.4494 O.2       3 UNK        -0.5208 
     27 CA         23.0231   -1.2997   -4.5771 C.3       3 UNK         0.0250 
     28 CB         22.0071   -2.3675   -5.0118 C.3       3 UNK        -0.1990 
     29 N          23.5828   -1.6351   -3.2656 N.am      3 UNK        -0.4232 
     30 C          24.2810   -0.7692   -2.5135 C.2       2 UNK         0.4993 
     31 O          24.4899    0.3993   -2.8370 O.2       2 UNK        -0.5286 
     32 CA         24.9031   -1.2993   -1.2091 C.3       2 UNK         0.0209 
     33 CB         23.9186   -1.1405   -0.0400 C.3       2 UNK        -0.1931 
     34 N          25.3470   -2.6941   -1.2920 N.am      2 UNK        -0.4546 
     35 C          26.2398   -3.1540   -2.1793 C.2       1 UNK         0.5154 
     36 O          26.8083   -2.4338   -3.0015 O.2       1 UNK        -0.5181 
     37 C          27.1657    2.1702   -4.7471 C.2       5 UNK         0.5014 
     38 O          27.8104    3.0684   -5.2899 O.2       5 UNK        -0.5248 
     39 N          25.8322    2.2024   -4.5894 N.am      6 UNK        -0.4434 
     40 CA         24.9576    3.2963   -5.0255 C.3       6 UNK         0.0363 
     41 CB         23.5320    3.0555   -4.5048 C.3       6 UNK        -0.1936 
     42 C          24.9434    3.5069   -6.5494 C.2       6 UNK         0.5081 
     43 O          24.9211    4.6530   -6.9986 O.2       6 UNK        -0.5248 
     44 N          24.9800    2.4093   -7.3178 N.am      7 UNK        -0.4718 
     45 CA         25.0746    2.4176   -8.7817 C.3       7 UNK         0.0273 
     46 CB         24.6985    1.0270   -9.3192 C.3       7 UNK        -0.1935 
     47 C          26.4579    2.8347   -9.3162 C.2       7 UNK         0.5018 
     48 O          26.5702    3.0963  -10.5147 O.2       7 UNK        -0.5186 
     49 N          27.4709    2.8777   -8.4370 N.am      8 UNK        -0.4240 
     50 CA         28.8823    3.1601   -8.7086 C.3       8 UNK         0.0235 
     51 CB         29.0780    4.6112   -9.1988 C.3       8 UNK        -0.2000 
     52 C          29.5027    2.1067   -9.6435 C.2       8 UNK         0.4941 
     53 O          30.0169    2.4478  -10.7119 O.2       8 UNK        -0.5273 
     54 N          29.4212    0.8369   -9.2204 N.am      9 UNK        -0.4262 
     55 CA         30.0264   -0.3235   -9.8810 C.3       9 UNK         0.0264 
     56 CB         29.6045   -1.5938   -9.1234 C.3       9 UNK        -0.1955 
     57 C          31.5631   -0.2400   -9.9820 C.2       9 UNK         0.5031 
     58 O          32.1978    0.5522   -9.2791 O.2       9 UNK        -0.5390 
     59 N          32.1359   -1.0806  -10.8537 N.am      10 UNK        -0.4204 
     60 CA         33.5667   -1.1606  -11.1644 C.3       10 UNK         0.0237 
     61 CB         33.7422   -1.9192  -12.4940 C.3       10 UNK        -0.1985 
     62 C          34.4099   -1.7676  -10.0227 C.2       10 UNK         0.4970 
     63 O          34.9844   -2.8465  -10.1825 O.2       10 UNK        -0.4914 
     64 N          34.4659   -1.0565   -8.8929 N.am      11 UNK        -0.4285 
     65 CA         35.3298   -1.3234   -7.7354 C.3       11 UNK         0.1007 
     66 C          36.8406   -1.3045   -8.1010 C.2       11 UNK         0.5703 
     67 N          37.6372   -2.1746   -7.4951 N.am      11 UNK        -0.7361 
     68 O          37.3007   -0.4826   -8.8924 O.2       11 UNK        -0.4986 
     69 C69        35.0404   -0.3146   -6.5944 C.3       12 UNK        -0.0947 
     70 S70        33.3793   -0.5347   -5.8722 S.3       12 UNK        -0.2240 
     71 C71        33.8321   -1.0094   -4.1780 C.3       12 UNK         0.0194 
     72 H72        23.8718   -6.6557   -5.2816 H         1 UNK         0.0906 
     73 H73        24.2628   -5.1142   -6.0478 H         1 UNK         0.0906 
     74 H74        25.5368   -6.2975   -5.7428 H         1 UNK         0.0906 
     75 H75        26.8301   -5.6653   -4.0097 H         1 UNK         0.3140 
     76 H76        25.8388   -5.1158   -1.4289 H         1 UNK         0.1085 
     77 H77        27.9755   -6.0951   -1.5141 H         1 UNK         0.0836 
     78 H78        28.2491   -4.4858   -0.9252 H         1 UNK         0.0836 
     79 H79        31.4702   -5.0773   -2.5391 H         1 UNK         0.0731 
     80 H80        30.5349   -4.6307   -1.1464 H         1 UNK         0.0731 
     81 H81        32.6792   -3.4335   -3.7507 H         1 UNK         0.1312 
     82 H82        32.3032    0.7064   -2.7072 H         1 UNK         0.1406 
     83 H83        29.5905   -2.1804   -1.0530 H         1 UNK         0.1631 
     84 H84        30.9514    0.9863   -0.3870 H         1 UNK         0.0717 
     85 H85        29.4601    0.0864   -0.3039 H         1 UNK         0.0717 
     86 H86        28.0699   -0.2085   -2.3927 H         1 UNK         0.0934 
     87 H87        27.0559    1.1900   -2.2386 H         1 UNK         0.0934 
     88 H88        28.9123    0.9310   -4.6558 H         1 UNK         0.0739 
     89 H89        26.9393   -0.9911   -4.1520 H         1 UNK         0.3093 
     90 H90        25.9935   -1.7104   -7.5071 H         1 UNK         0.0818 
     91 H91        28.0557   -3.0476   -7.0409 H         1 UNK         0.0819 
     92 H92        27.5345   -3.3087   -5.3878 H         1 UNK         0.0819 
     93 H93        26.6060   -3.9824   -6.7275 H         1 UNK         0.0819 
     94 H94        25.2016   -2.6345   -4.8734 H         1 UNK         0.3041 
     95 H95        22.4888   -0.3520   -4.4797 H         1 UNK         0.0784 
     96 H96        21.5313   -2.0879   -5.9528 H         1 UNK         0.0793 
     97 H97        22.4746   -3.3402   -5.1631 H         1 UNK         0.0793 
     98 H98        21.2154   -2.4870   -4.2721 H         1 UNK         0.0793 
     99 H99        23.4971   -2.5985   -2.9609 H         1 UNK         0.3024 
    100 H100       25.7829   -0.6872   -1.0000 H         1 UNK         0.1171 
    101 H101       24.3792   -1.4185    0.9082 H         1 UNK         0.0786 
    102 H102       23.5894   -0.1044    0.0540 H         1 UNK         0.0786 
    103 H103       23.0273   -1.7547   -0.1748 H         1 UNK         0.0786 
    104 H104       24.8963   -3.3482   -0.6678 H         1 UNK         0.2977 
    105 H105       25.3776    1.4391   -4.0905 H         1 UNK         0.3127 
    106 H106       25.3341    4.2155   -4.5718 H         1 UNK         0.0770 
    107 H107       23.1129    2.1275   -4.8956 H         1 UNK         0.0814 
    108 H108       22.8648    3.8663   -4.8001 H         1 UNK         0.0814 
    109 H109       23.5115    2.9990   -3.4163 H         1 UNK         0.0814 
    110 H110       24.9100    1.4965   -6.8751 H         1 UNK         0.2983 
    111 H111       24.3507    3.1396   -9.1657 H         1 UNK         0.0947 
    112 H112       25.3840    0.2599   -8.9571 H         1 UNK         0.0806 
    113 H113       24.7290    1.0042  -10.4093 H         1 UNK         0.0806 
    114 H114       23.6891    0.7449   -9.0193 H         1 UNK         0.0806 
    115 H115       27.2630    2.6193   -7.4797 H         1 UNK         0.3000 
    116 H116       29.4004    3.0659   -7.7526 H         1 UNK         0.0850 
    117 H117       30.1383    4.8456   -9.3004 H         1 UNK         0.0810 
    118 H118       28.6530    5.3266   -8.4948 H         1 UNK         0.0810 
    119 H119       28.6150    4.7812  -10.1712 H         1 UNK         0.0810 
    120 H120       28.9209    0.6476   -8.3541 H         1 UNK         0.3040 
    121 H121       29.6244   -0.3679  -10.8952 H         1 UNK         0.0766 
    122 H122       28.5194   -1.6976   -9.1057 H         1 UNK         0.0812 
    123 H123       29.9569   -1.5781   -8.0908 H         1 UNK         0.0812 
    124 H124       30.0045   -2.4937   -9.5917 H         1 UNK         0.0812 
    125 H125       31.5400   -1.7207  -11.3591 H         1 UNK         0.3205 
    126 H126       33.9337   -0.1436  -11.3194 H         1 UNK         0.0754 
    127 H127       34.7940   -1.9702  -12.7791 H         1 UNK         0.0769 
    128 H128       33.2138   -1.4222  -13.3079 H         1 UNK         0.0769 
    129 H129       33.3720   -2.9432  -12.4284 H         1 UNK         0.0769 
    130 H130       33.8798   -0.2281   -8.8358 H         1 UNK         0.2981 
    131 H131       35.0867   -2.3269   -7.3807 H         1 UNK         0.0541 
    132 H132       38.6226   -2.1665   -7.7077 H         1 UNK         0.3459 
    133 H133       37.2730   -2.8447   -6.8358 H         1 UNK         0.3459 
    134 H134       35.7850   -0.4086   -5.8016 H         1 UNK         0.0612 
    135 H135       35.1232    0.7108   -6.9595 H         1 UNK         0.0612 
    136 H136       34.4004   -0.1997   -3.7173 H         1 UNK         0.0624 
    137 H137       34.4983   -1.8731   -4.2125 H         1 UNK         0.0624 
@<TRIPOS>BOND
     1    1    2 1    
     2    1   72 1    
     3    1   73 1    
     4    1   74 1    
     5    2    3 2    
     6    2    4 am   BACKBONE|DICT|INTERRES
     7    4    5 1    
     8    4   75 1    
     9    5    6 1    
    10    5   35 1    
    11    5   76 1    
    12    6    7 1    
    13    6   77 1    
    14    6   78 1    
    15    7    8 1    
    16    8    9 1    
    17    8   79 1    
    18    8   80 1    
    19    9   10 ar   
    20    9   14 ar   
    21   10   11 ar   
    22   10   81 1    
    23   11   12 ar   
    24   11   71 1    
    25   12   13 ar   
    26   12   82 1    
    27   13   14 ar   
    28   13   15 1    
    29   14   83 1    
    30   15   16 1    
    31   15   84 1    
    32   15   85 1    
    33   16   17 1    
    34   17   18 1    
    35   17   86 1    
    36   17   87 1    
    37   18   19 1    
    38   18   37 1    
    39   18   88 1    
    40   19   20 am   BACKBONE|DICT|INTERRES
    41   19   89 1    
    42   20   21 2    
    43   20   22 1    
    44   22   23 1    
    45   22   24 1    
    46   22   90 1    
    47   23   91 1    
    48   23   92 1    
    49   23   93 1    
    50   24   25 am   BACKBONE|DICT|INTERRES
    51   24   94 1    
    52   25   26 2    
    53   25   27 1    
    54   27   28 1    
    55   27   29 1    
    56   27   95 1    
    57   28   96 1    
    58   28   97 1    
    59   28   98 1    
    60   29   30 am   BACKBONE|DICT|INTERRES
    61   29   99 1    
    62   30   31 2    
    63   30   32 1    
    64   32   33 1    
    65   32   34 1    
    66   32  100 1    
    67   33  101 1    
    68   33  102 1    
    69   33  103 1    
    70   34   35 am   BACKBONE|DICT|INTERRES
    71   34  104 1    
    72   35   36 2    
    73   37   38 2    
    74   37   39 am   BACKBONE|DICT|INTERRES
    75   39   40 1    
    76   39  105 1    
    77   40   41 1    
    78   40   42 1    
    79   40  106 1    
    80   41  107 1    
    81   41  108 1    
    82   41  109 1    
    83   42   43 2    
    84   42   44 am   BACKBONE|DICT|INTERRES
    85   44   45 1    
    86   44  110 1    
    87   45   46 1    
    88   45   47 1    
    89   45  111 1    
    90   46  112 1    
    91   46  113 1    
    92   46  114 1    
    93   47   48 2    
    94   47   49 am   BACKBONE|DICT|INTERRES
    95   49   50 1    
    96   49  115 1    
    97   50   51 1    
    98   50   52 1    
    99   50  116 1    
   100   51  117 1    
   101   51  118 1    
   102   51  119 1    
   103   52   53 2    
   104   52   54 am   BACKBONE|DICT|INTERRES
   105   54   55 1    
   106   54  120 1    
   107   55   56 1    
   108   55   57 1    
   109   55  121 1    
   110   56  122 1    
   111   56  123 1    
   112   56  124 1    
   113   57   58 2    
   114   57   59 am   BACKBONE|DICT|INTERRES
   115   59   60 1    
   116   59  125 1    
   117   60   61 1    
   118   60   62 1    
   119   60  126 1    
   120   61  127 1    
   121   61  128 1    
   122   61  129 1    
   123   62   63 2    
   124   62   64 am   BACKBONE|DICT|INTERRES
   125   64   65 1    
   126   64  130 1    
   127   65   66 1    
   128   65   69 1    
   129   65  131 1    
   130   66   67 am   BACKBONE|DICT|INTERRES
   131   66   68 2    
   132   67  132 1    
   133   67  133 1    
   134   69   70 1    
   135   69  134 1    
   136   69  135 1    
   137   70   71 1    
   138   71  136 1    
   139   71  137 1    
@<TRIPOS>SUBSTRUCTURE
     1 UNK         1 GROUP             0       ****    0 ROOT    
