@<TRIPOS>MOLECULE
3R137
137   139    1
SMALL
USER_CHARGES


@<TRIPOS>ATOM
      1 CA         27.1427   -6.2084   -5.3959 C.3       0 UNK        -0.2020 
      2 C          26.6963   -5.5690   -4.0901 C.2       0 UNK         0.4855 
      3 O          25.5027   -5.3361   -3.8987 O.2       0 UNK        -0.5197 
      4 N          27.6433   -5.2823   -3.1869 N.am      1 UNK        -0.4892 
      5 CA         27.4002   -4.5788   -1.9210 C.3       1 UNK         0.0835 
      6 C6         28.5739   -4.8050   -0.9149 C.3       12 UNK        -0.0855 
      7 S7         29.8481   -3.5023   -0.7547 S.3       12 UNK        -0.2931 
      8 C8         30.8774   -3.7821   -2.2317 C.3       12 UNK         0.0378 
      9 C9         31.5555   -2.4886   -2.6564 C.ar      12 UNK        -0.0802 
     10 C10        32.9428   -2.3292   -2.5851 C.ar      12 UNK        -0.0944 
     11 C11        33.5330   -1.1163   -2.9634 C.ar      12 UNK        -0.0787 
     12 C12        32.7260   -0.0520   -3.3824 C.ar      12 UNK        -0.0862 
     13 C13        31.3396   -0.2037   -3.4562 C.ar      12 UNK        -0.0733 
     14 C14        30.7699   -1.4313   -3.1161 C.ar      12 UNK        -0.0832 
     15 C15        30.4432    0.9393   -3.9083 C.3       12 UNK         0.0240 
     16 S16        29.1559    1.2891   -2.6571 S.3       12 UNK        -0.2522 
     17 C17        27.9164    2.3319   -3.5022 C.3       12 UNK        -0.0967 
     18 CA         27.6525    2.0214   -4.9970 C.3       5 UNK         0.0660 
     19 N          27.4051    0.6014   -5.2650 N.am      5 UNK        -0.4015 
     20 C          27.4271    0.0538   -6.4890 C.2       4 UNK         0.4946 
     21 O          27.6808    0.6842   -7.5137 O.2       4 UNK        -0.5353 
     22 CA         27.0597   -1.4331   -6.5990 C.3       4 UNK         0.0277 
     23 CB         28.2971   -2.3171   -6.3698 C.3       4 UNK        -0.1981 
     24 N          25.9872   -1.7970   -5.6692 N.am      4 UNK        -0.4209 
     25 C          24.7200   -1.3687   -5.7983 C.2       3 UNK         0.4942 
     26 O          24.3261   -0.6968   -6.7508 O.2       3 UNK        -0.5208 
     27 CA         23.7313   -1.6870   -4.6621 C.3       3 UNK         0.0250 
     28 CB         22.9590   -2.9802   -4.9629 C.3       3 UNK        -0.1990 
     29 N          24.3682   -1.7830   -3.3473 N.am      3 UNK        -0.4232 
     30 C          24.9997   -0.7719   -2.7319 C.2       2 UNK         0.4993 
     31 O          25.0498    0.3732   -3.1848 O.2       2 UNK        -0.5286 
     32 CA         25.7527   -1.1025   -1.4274 C.3       2 UNK         0.0209 
     33 CB         24.8904   -0.7461   -0.2067 C.3       2 UNK        -0.1931 
     34 N          26.2062   -2.4988   -1.3161 N.am      2 UNK        -0.4546 
     35 C          27.0242   -3.1012   -2.1918 C.2       1 UNK         0.5154 
     36 O          27.4514   -2.5375   -3.2026 O.2       1 UNK        -0.5181 
     37 C          26.4970    2.8856   -5.5328 C.2       5 UNK         0.5014 
     38 O          26.7558    3.9169   -6.1529 O.2       5 UNK        -0.5248 
     39 N          25.2510    2.4280   -5.3301 N.am      6 UNK        -0.4434 
     40 CA         24.0361    3.0484   -5.8701 C.3       6 UNK         0.0363 
     41 CB         22.7980    2.3323   -5.3087 C.3       6 UNK        -0.1936 
     42 C          24.0017    3.0691   -7.4102 C.2       6 UNK         0.5081 
     43 O          23.5644    4.0612   -7.9930 O.2       6 UNK        -0.5248 
     44 N          24.4956    1.9942   -8.0400 N.am      7 UNK        -0.4718 
     45 CA         24.6708    1.8774   -9.4912 C.3       7 UNK         0.0273 
     46 CB         24.7920    0.3877   -9.8543 C.3       7 UNK        -0.1935 
     47 C          25.8835    2.6568  -10.0397 C.2       7 UNK         0.5018 
     48 O          26.0027    2.7775  -11.2598 O.2       7 UNK        -0.5186 
     49 N          26.7624    3.1439   -9.1494 N.am      8 UNK        -0.4240 
     50 CA         28.0503    3.7958   -9.4201 C.3       8 UNK         0.0235 
     51 CB         27.8479    5.1546  -10.1243 C.3       8 UNK        -0.2000 
     52 C          29.0452    2.8710  -10.1521 C.2       8 UNK         0.4941 
     53 O          29.7827    3.3251  -11.0300 O.2       8 UNK        -0.5273 
     54 N          29.0406    1.5865   -9.7783 N.am      9 UNK        -0.4262 
     55 CA         29.9264    0.5472  -10.2954 C.3       9 UNK         0.0264 
     56 CB         29.1479   -0.7807  -10.3165 C.3       9 UNK        -0.1955 
     57 C          31.1936    0.4264   -9.4315 C.2       9 UNK         0.5031 
     58 O          31.2696    1.0013   -8.3414 O.2       9 UNK        -0.5390 
     59 N          32.1671   -0.3401   -9.9386 N.am      10 UNK        -0.4204 
     60 CA         33.3998   -0.7057   -9.2361 C.3       10 UNK         0.0237 
     61 CB         34.3925   -1.2901  -10.2567 C.3       10 UNK        -0.1985 
     62 C          33.1438   -1.7072   -8.0933 C.2       10 UNK         0.4970 
     63 O          32.0874   -2.3437   -8.0529 O.2       10 UNK        -0.4914 
     64 N          34.1356   -1.8373   -7.2033 N.am      11 UNK        -0.4285 
     65 CA         34.1359   -2.7492   -6.0489 C.3       11 UNK         0.1007 
     66 C          33.9285   -4.2400   -6.4356 C.2       11 UNK         0.5703 
     67 N          33.1648   -4.9853   -5.6479 N.am      11 UNK        -0.7361 
     68 O          34.4930   -4.7329   -7.4111 O.2       11 UNK        -0.4986 
     69 C69        35.4296   -2.6010   -5.2023 C.3       12 UNK        -0.0947 
     70 S70        35.7361   -0.8982   -4.6216 S.3       12 UNK        -0.2240 
     71 C71        35.0447   -0.9518   -2.9372 C.3       12 UNK         0.0194 
     72 H72        26.7726   -5.6292   -6.2415 H         1 UNK         0.0906 
     73 H73        28.2284   -6.2641   -5.4733 H         1 UNK         0.0906 
     74 H74        26.7425   -7.2188   -5.4744 H         1 UNK         0.0906 
     75 H75        28.6091   -5.4736   -3.4062 H         1 UNK         0.3140 
     76 H76        26.5153   -5.0481   -1.4839 H         1 UNK         0.1085 
     77 H77        29.0678   -5.7607   -1.0999 H         1 UNK         0.0836 
     78 H78        28.1442   -4.9118    0.0826 H         1 UNK         0.0836 
     79 H79        30.2590   -4.1360   -3.0567 H         1 UNK         0.0731 
     80 H80        31.6080   -4.5653   -2.0233 H         1 UNK         0.0731 
     81 H81        33.5622   -3.1468   -2.2424 H         1 UNK         0.1312 
     82 H82        33.1827    0.8870   -3.6643 H         1 UNK         0.1406 
     83 H83        29.6980   -1.5498   -3.1689 H         1 UNK         0.1631 
     84 H84        30.0085    0.6489   -4.8627 H         1 UNK         0.0717 
     85 H85        31.0206    1.8471   -4.0888 H         1 UNK         0.0717 
     86 H86        26.9925    2.2469   -2.9265 H         1 UNK         0.0934 
     87 H87        28.2345    3.3708   -3.3939 H         1 UNK         0.0934 
     88 H88        28.5421    2.3117   -5.5601 H         1 UNK         0.0739 
     89 H89        27.1658    0.0254   -4.4702 H         1 UNK         0.3093 
     90 H90        26.7009   -1.6134   -7.6147 H         1 UNK         0.0818 
     91 H91        28.0517   -3.3756   -6.4481 H         1 UNK         0.0819 
     92 H92        29.0692   -2.1076   -7.1114 H         1 UNK         0.0819 
     93 H93        28.7459   -2.1475   -5.3917 H         1 UNK         0.0819 
     94 H94        26.2634   -2.2950   -4.8285 H         1 UNK         0.3041 
     95 H95        23.0113   -0.8679   -4.6157 H         1 UNK         0.0784 
     96 H96        22.4307   -2.9041   -5.9144 H         1 UNK         0.0793 
     97 H97        23.6229   -3.8422   -5.0293 H         1 UNK         0.0793 
     98 H98        22.2132   -3.1872   -4.1952 H         1 UNK         0.0793 
     99 H99        24.3936   -2.6973   -2.9185 H         1 UNK         0.3024 
    100 H100       26.6442   -0.4708   -1.4132 H         1 UNK         0.1171 
    101 H101       25.4483   -0.8647    0.7224 H         1 UNK         0.0786 
    102 H102       24.5602    0.2930   -0.2524 H         1 UNK         0.0786 
    103 H103       23.9974   -1.3695   -0.1465 H         1 UNK         0.0786 
    104 H104       25.8902   -3.0134   -0.5061 H         1 UNK         0.2977 
    105 H105       25.1282    1.5993   -4.7539 H         1 UNK         0.3127 
    106 H106       24.0170    4.0842   -5.5249 H         1 UNK         0.0770 
    107 H107       22.7406    1.2993   -5.6512 H         1 UNK         0.0814 
    108 H108       21.8827    2.8314   -5.6294 H         1 UNK         0.0814 
    109 H109       22.8004    2.3258   -4.2185 H         1 UNK         0.0814 
    110 H110       24.7588    1.1842   -7.4873 H         1 UNK         0.2983 
    111 H111       23.7805    2.2783   -9.9805 H         1 UNK         0.0947 
    112 H112       25.6724   -0.0658   -9.3975 H         1 UNK         0.0806 
    113 H113       24.8775    0.2511  -10.9332 H         1 UNK         0.0806 
    114 H114       23.9174   -0.1739   -9.5255 H         1 UNK         0.0806 
    115 H115       26.5642    2.9835   -8.1694 H         1 UNK         0.3000 
    116 H116       28.4940    3.9962   -8.4436 H         1 UNK         0.0850 
    117 H117       27.1524    5.7865   -9.5720 H         1 UNK         0.0810 
    118 H118       27.4618    5.0338  -11.1368 H         1 UNK         0.0810 
    119 H119       28.7899    5.6991  -10.1994 H         1 UNK         0.0810 
    120 H120       28.4642    1.3140   -8.9811 H         1 UNK         0.3040 
    121 H121       30.2250    0.7949  -11.3163 H         1 UNK         0.0766 
    122 H122       29.7413   -1.5854  -10.7518 H         1 UNK         0.0812 
    123 H123       28.2366   -0.6953  -10.9090 H         1 UNK         0.0812 
    124 H124       28.8627   -1.0943   -9.3123 H         1 UNK         0.0812 
    125 H125       32.0060   -0.7983  -10.8236 H         1 UNK         0.3205 
    126 H126       33.8295    0.2017   -8.8059 H         1 UNK         0.0754 
    127 H127       35.3478   -1.5296   -9.7877 H         1 UNK         0.0769 
    128 H128       34.5996   -0.5823  -11.0598 H         1 UNK         0.0769 
    129 H129       34.0136   -2.2086  -10.7073 H         1 UNK         0.0769 
    130 H130       34.9731   -1.2869   -7.3190 H         1 UNK         0.2981 
    131 H131       33.2862   -2.4504   -5.4337 H         1 UNK         0.0541 
    132 H132       32.7088   -4.5897   -4.8420 H         1 UNK         0.3459 
    133 H133       33.0341   -5.9589   -5.8732 H         1 UNK         0.3459 
    134 H134       35.3993   -3.2650   -4.3364 H         1 UNK         0.0612 
    135 H135       36.2987   -2.9105   -5.7859 H         1 UNK         0.0612 
    136 H136       35.5193   -1.7559   -2.3727 H         1 UNK         0.0624 
    137 H137       35.2975   -0.0240   -2.4222 H         1 UNK         0.0624 
@<TRIPOS>BOND
     1    1    2 1    
     2    1   72 1    
     3    1   73 1    
     4    1   74 1    
     5    2    3 2    
     6    2    4 am   BACKBONE|DICT|INTERRES
     7    4    5 1    
     8    4   75 1    
     9    5    6 1    
    10    5   35 1    
    11    5   76 1    
    12    6    7 1    
    13    6   77 1    
    14    6   78 1    
    15    7    8 1    
    16    8    9 1    
    17    8   79 1    
    18    8   80 1    
    19    9   10 ar   
    20    9   14 ar   
    21   10   11 ar   
    22   10   81 1    
    23   11   12 ar   
    24   11   71 1    
    25   12   13 ar   
    26   12   82 1    
    27   13   14 ar   
    28   13   15 1    
    29   14   83 1    
    30   15   16 1    
    31   15   84 1    
    32   15   85 1    
    33   16   17 1    
    34   17   18 1    
    35   17   86 1    
    36   17   87 1    
    37   18   19 1    
    38   18   37 1    
    39   18   88 1    
    40   19   20 am   BACKBONE|DICT|INTERRES
    41   19   89 1    
    42   20   21 2    
    43   20   22 1    
    44   22   23 1    
    45   22   24 1    
    46   22   90 1    
    47   23   91 1    
    48   23   92 1    
    49   23   93 1    
    50   24   25 am   BACKBONE|DICT|INTERRES
    51   24   94 1    
    52   25   26 2    
    53   25   27 1    
    54   27   28 1    
    55   27   29 1    
    56   27   95 1    
    57   28   96 1    
    58   28   97 1    
    59   28   98 1    
    60   29   30 am   BACKBONE|DICT|INTERRES
    61   29   99 1    
    62   30   31 2    
    63   30   32 1    
    64   32   33 1    
    65   32   34 1    
    66   32  100 1    
    67   33  101 1    
    68   33  102 1    
    69   33  103 1    
    70   34   35 am   BACKBONE|DICT|INTERRES
    71   34  104 1    
    72   35   36 2    
    73   37   38 2    
    74   37   39 am   BACKBONE|DICT|INTERRES
    75   39   40 1    
    76   39  105 1    
    77   40   41 1    
    78   40   42 1    
    79   40  106 1    
    80   41  107 1    
    81   41  108 1    
    82   41  109 1    
    83   42   43 2    
    84   42   44 am   BACKBONE|DICT|INTERRES
    85   44   45 1    
    86   44  110 1    
    87   45   46 1    
    88   45   47 1    
    89   45  111 1    
    90   46  112 1    
    91   46  113 1    
    92   46  114 1    
    93   47   48 2    
    94   47   49 am   BACKBONE|DICT|INTERRES
    95   49   50 1    
    96   49  115 1    
    97   50   51 1    
    98   50   52 1    
    99   50  116 1    
   100   51  117 1    
   101   51  118 1    
   102   51  119 1    
   103   52   53 2    
   104   52   54 am   BACKBONE|DICT|INTERRES
   105   54   55 1    
   106   54  120 1    
   107   55   56 1    
   108   55   57 1    
   109   55  121 1    
   110   56  122 1    
   111   56  123 1    
   112   56  124 1    
   113   57   58 2    
   114   57   59 am   BACKBONE|DICT|INTERRES
   115   59   60 1    
   116   59  125 1    
   117   60   61 1    
   118   60   62 1    
   119   60  126 1    
   120   61  127 1    
   121   61  128 1    
   122   61  129 1    
   123   62   63 2    
   124   62   64 am   BACKBONE|DICT|INTERRES
   125   64   65 1    
   126   64  130 1    
   127   65   66 1    
   128   65   69 1    
   129   65  131 1    
   130   66   67 am   BACKBONE|DICT|INTERRES
   131   66   68 2    
   132   67  132 1    
   133   67  133 1    
   134   69   70 1    
   135   69  134 1    
   136   69  135 1    
   137   70   71 1    
   138   71  136 1    
   139   71  137 1    
@<TRIPOS>SUBSTRUCTURE
     1 UNK         1 GROUP             0       ****    0 ROOT    
