@<TRIPOS>MOLECULE
3R137
137   139    1
SMALL
USER_CHARGES


@<TRIPOS>ATOM
      1 CA         30.7298   -5.4552   -4.5905 C.3       0 UNK        -0.2020 
      2 C          29.4322   -5.8028   -3.8760 C.2       0 UNK         0.4855 
      3 O          28.9736   -6.9426   -3.9540 O.2       0 UNK        -0.5197 
      4 N          28.8352   -4.8274   -3.1873 N.am      1 UNK        -0.4892 
      5 CA         27.5585   -4.9253   -2.4848 C.3       1 UNK         0.0835 
      6 C6         27.6694   -5.6750   -1.1245 C.3       12 UNK        -0.0855 
      7 S7         28.2316   -4.7211    0.3304 S.3       12 UNK        -0.2931 
      8 C8         30.0000   -4.4375   -0.0252 C.3       12 UNK         0.0378 
      9 C9         30.2735   -3.1376   -0.7807 C.ar      12 UNK        -0.0802 
     10 C10        31.2661   -3.1008   -1.7667 C.ar      12 UNK        -0.0944 
     11 C11        31.5641   -1.9077   -2.4324 C.ar      12 UNK        -0.0787 
     12 C12        30.8653   -0.7434   -2.1022 C.ar      12 UNK        -0.0862 
     13 C13        29.8615   -0.7640   -1.1297 C.ar      12 UNK        -0.0733 
     14 C14        29.5792   -1.9618   -0.4683 C.ar      12 UNK        -0.0832 
     15 C15        29.1060    0.5056   -0.7557 C.3       12 UNK         0.0240 
     16 S16        27.7257    0.8590   -1.8939 S.3       12 UNK        -0.2522 
     17 C17        28.5663    1.8597   -3.1669 C.3       12 UNK        -0.0967 
     18 CA         28.1026    1.6154   -4.6245 C.3       5 UNK         0.0660 
     19 N          27.9135    0.2024   -4.9733 N.am      5 UNK        -0.4015 
     20 C          27.9378   -0.2453   -6.2371 C.2       4 UNK         0.4946 
     21 O          28.1796    0.4721   -7.2079 O.2       4 UNK        -0.5353 
     22 CA         27.5705   -1.7160   -6.4722 C.3       4 UNK         0.0277 
     23 CB         28.7189   -2.6572   -6.0742 C.3       4 UNK        -0.1981 
     24 N          26.3429   -2.0844   -5.7677 N.am      4 UNK        -0.4209 
     25 C          25.1164   -1.6906   -6.1444 C.2       3 UNK         0.4942 
     26 O          24.9077   -0.9542   -7.1068 O.2       3 UNK        -0.5208 
     27 CA         23.9151   -2.1869   -5.3189 C.3       3 UNK         0.0250 
     28 CB         23.3135   -3.4475   -5.9597 C.3       3 UNK        -0.1990 
     29 N          24.2423   -2.4656   -3.9214 N.am      3 UNK        -0.4232 
     30 C          24.6102   -1.5414   -3.0232 C.2       2 UNK         0.4993 
     31 O          24.6491   -0.3342   -3.2598 O.2       2 UNK        -0.5286 
     32 CA         25.0766   -2.0740   -1.6557 C.3       2 UNK         0.0209 
     33 CB         23.8878   -2.2189   -0.6928 C.3       2 UNK        -0.1931 
     34 N          25.7983   -3.3527   -1.7483 N.am      2 UNK        -0.4546 
     35 C          26.9376   -3.5148   -2.4369 C.2       1 UNK         0.5154 
     36 O          27.4710   -2.5975   -3.0679 O.2       1 UNK        -0.5181 
     37 C          26.9063    2.5022   -5.0288 C.2       5 UNK         0.5014 
     38 O          27.1234    3.6829   -5.3055 O.2       5 UNK        -0.5248 
     39 N          25.6889    1.9401   -5.1112 N.am      6 UNK        -0.4434 
     40 CA         24.5240    2.6189   -5.6911 C.3       6 UNK         0.0363 
     41 CB         23.2392    1.8342   -5.3877 C.3       6 UNK        -0.1936 
     42 C          24.6752    2.8541   -7.2061 C.2       6 UNK         0.5081 
     43 O          24.3424    3.9401   -7.6815 O.2       6 UNK        -0.5248 
     44 N          25.1910    1.8506   -7.9332 N.am      7 UNK        -0.4718 
     45 CA         25.5288    1.9462   -9.3576 C.3       7 UNK         0.0273 
     46 CB         25.7774    0.5394   -9.9256 C.3       7 UNK        -0.1935 
     47 C          26.7426    2.8525   -9.6254 C.2       7 UNK         0.5018 
     48 O          26.7985    3.4876  -10.6784 O.2       7 UNK        -0.5186 
     49 N          27.6975    2.8768   -8.6844 N.am      8 UNK        -0.4240 
     50 CA         28.9135    3.7006   -8.6052 C.3       8 UNK         0.0235 
     51 CB         28.5732    5.2036   -8.6140 C.3       8 UNK        -0.2000 
     52 C          30.0060    3.3692   -9.6391 C.2       8 UNK         0.4941 
     53 O          31.1818    3.5912   -9.3505 O.2       8 UNK        -0.5273 
     54 N          29.6239    2.8320  -10.8044 N.am      9 UNK        -0.4262 
     55 CA         30.5283    2.3445  -11.8507 C.3       9 UNK         0.0264 
     56 CB         29.7434    2.2237  -13.1675 C.3       9 UNK        -0.1955 
     57 C          31.2022    1.0024  -11.5012 C.2       9 UNK         0.5031 
     58 O          32.2106    0.6573  -12.1198 O.2       9 UNK        -0.5390 
     59 N          30.6294    0.2655  -10.5407 N.am      10 UNK        -0.4204 
     60 CA         31.1464   -0.9966  -10.0110 C.3       10 UNK         0.0237 
     61 CB         29.9520   -1.8261   -9.5109 C.3       10 UNK        -0.1985 
     62 C          32.2018   -0.7636   -8.9090 C.2       10 UNK         0.4970 
     63 O          32.5592    0.3818   -8.6270 O.2       10 UNK        -0.4914 
     64 N          32.6971   -1.8651   -8.3264 N.am      11 UNK        -0.4285 
     65 CA         33.7977   -1.9196   -7.3409 C.3       11 UNK         0.1007 
     66 C          35.2097   -1.6351   -7.9433 C.2       11 UNK         0.5703 
     67 N          35.3793   -1.6037   -9.2603 N.am      11 UNK        -0.7361 
     68 O          36.1818   -1.4773   -7.2081 O.2       11 UNK        -0.4986 
     69 C69        33.5368   -1.0986   -6.0408 C.3       12 UNK        -0.0947 
     70 S70        32.0179   -1.5802   -5.1517 S.3       12 UNK        -0.2240 
     71 C71        32.6726   -1.8508   -3.4739 C.3       12 UNK         0.0194 
     72 H72        30.6565   -5.7092   -5.6475 H         1 UNK         0.0906 
     73 H73        30.9630   -4.3936   -4.5165 H         1 UNK         0.0906 
     74 H74        31.5584   -6.0168   -4.1602 H         1 UNK         0.0906 
     75 H75        29.2125   -3.8860   -3.1796 H         1 UNK         0.3140 
     76 H76        26.8918   -5.5070   -3.1255 H         1 UNK         0.1085 
     77 H77        28.3054   -6.5554   -1.2281 H         1 UNK         0.0836 
     78 H78        26.6877   -6.0757   -0.8673 H         1 UNK         0.0836 
     79 H79        30.3994   -5.2955   -0.5683 H         1 UNK         0.0731 
     80 H80        30.5385   -4.3964    0.9223 H         1 UNK         0.0731 
     81 H81        31.8205   -3.9986   -2.0036 H         1 UNK         0.1312 
     82 H82        31.1202    0.1778   -2.6038 H         1 UNK         0.1406 
     83 H83        28.8169   -1.9754    0.2983 H         1 UNK         0.1631 
     84 H84        29.7899    1.3548   -0.7187 H         1 UNK         0.0717 
     85 H85        28.6992    0.4104    0.2521 H         1 UNK         0.0717 
     86 H86        28.4689    2.9128   -2.8947 H         1 UNK         0.0934 
     87 H87        29.6354    1.6666   -3.1179 H         1 UNK         0.0934 
     88 H88        28.9257    1.9724   -5.2489 H         1 UNK         0.0739 
     89 H89        27.7109   -0.4355   -4.2124 H         1 UNK         0.3093 
     90 H90        27.3883   -1.8481   -7.5410 H         1 UNK         0.0818 
     91 H91        29.0408   -2.4995   -5.0458 H         1 UNK         0.0819 
     92 H92        28.4357   -3.7036   -6.1853 H         1 UNK         0.0819 
     93 H93        29.5943   -2.4925   -6.7006 H         1 UNK         0.0819 
     94 H94        26.4561   -2.6017   -4.9052 H         1 UNK         0.3041 
     95 H95        23.1549   -1.4043   -5.3333 H         1 UNK         0.0784 
     96 H96        23.0323   -3.2602   -6.9972 H         1 UNK         0.0793 
     97 H97        24.0194   -4.2792   -5.9590 H         1 UNK         0.0793 
     98 H98        22.4130   -3.7689   -5.4358 H         1 UNK         0.0793 
     99 H99        24.2332   -3.4330   -3.6333 H         1 UNK         0.3024 
    100 H100       25.7665   -1.3353   -1.2415 H         1 UNK         0.1171 
    101 H101       24.2194   -2.5050    0.3056 H         1 UNK         0.0786 
    102 H102       23.3494   -1.2750   -0.5952 H         1 UNK         0.0786 
    103 H103       23.1741   -2.9677   -1.0386 H         1 UNK         0.0786 
    104 H104       25.4159   -4.1338   -1.2348 H         1 UNK         0.2977 
    105 H105       25.5546    0.9922   -4.7786 H         1 UNK         0.3127 
    106 H106       24.4372    3.5964   -5.2115 H         1 UNK         0.0770 
    107 H107       23.2398    0.8581   -5.8702 H         1 UNK         0.0814 
    108 H108       22.3624    2.3726   -5.7497 H         1 UNK         0.0814 
    109 H109       23.1070    1.6831   -4.3163 H         1 UNK         0.0814 
    110 H110       25.3602    0.9537   -7.4870 H         1 UNK         0.2983 
    111 H111       24.6740    2.3805   -9.8807 H         1 UNK         0.0947 
    112 H112       26.0175    0.5822  -10.9888 H         1 UNK         0.0806 
    113 H113       24.8947   -0.0912   -9.8181 H         1 UNK         0.0806 
    114 H114       26.6058    0.0396   -9.4223 H         1 UNK         0.0806 
    115 H115       27.6085    2.1909   -7.9390 H         1 UNK         0.3000 
    116 H116       29.3446    3.4713   -7.6291 H         1 UNK         0.0850 
    117 H117       29.4655    5.8053   -8.4366 H         1 UNK         0.0810 
    118 H118       27.8554    5.4489   -7.8307 H         1 UNK         0.0810 
    119 H119       28.1527    5.5222   -9.5682 H         1 UNK         0.0810 
    120 H120       28.6265    2.7822  -10.9864 H         1 UNK         0.3040 
    121 H121       31.3217    3.0818  -11.9904 H         1 UNK         0.0766 
    122 H122       29.3177    3.1822  -13.4652 H         1 UNK         0.0812 
    123 H123       28.9276    1.5041  -13.0869 H         1 UNK         0.0812 
    124 H124       30.3918    1.8925  -13.9800 H         1 UNK         0.0812 
    125 H125       29.8400    0.6641  -10.0547 H         1 UNK         0.3205 
    126 H126       31.6324   -1.5481  -10.8186 H         1 UNK         0.0754 
    127 H127       30.2583   -2.8024   -9.1347 H         1 UNK         0.0769 
    128 H128       29.2343   -2.0059  -10.3117 H         1 UNK         0.0769 
    129 H129       29.4286   -1.3084   -8.7103 H         1 UNK         0.0769 
    130 H130       32.3524   -2.7648   -8.6270 H         1 UNK         0.2981 
    131 H131       33.8480   -2.9666   -7.0407 H         1 UNK         0.0541 
    132 H132       34.6003   -1.7407   -9.8831 H         1 UNK         0.3459 
    133 H133       36.2998   -1.4322   -9.6330 H         1 UNK         0.3459 
    134 H134       34.3790   -1.2145   -5.3569 H         1 UNK         0.0612 
    135 H135       33.4830   -0.0311   -6.2555 H         1 UNK         0.0612 
    136 H136       33.3522   -1.0380   -3.2135 H         1 UNK         0.0624 
    137 H137       33.2649   -2.7671   -3.4663 H         1 UNK         0.0624 
@<TRIPOS>BOND
     1    1    2 1    
     2    1   72 1    
     3    1   73 1    
     4    1   74 1    
     5    2    3 2    
     6    2    4 am   BACKBONE|DICT|INTERRES
     7    4    5 1    
     8    4   75 1    
     9    5    6 1    
    10    5   35 1    
    11    5   76 1    
    12    6    7 1    
    13    6   77 1    
    14    6   78 1    
    15    7    8 1    
    16    8    9 1    
    17    8   79 1    
    18    8   80 1    
    19    9   10 ar   
    20    9   14 ar   
    21   10   11 ar   
    22   10   81 1    
    23   11   12 ar   
    24   11   71 1    
    25   12   13 ar   
    26   12   82 1    
    27   13   14 ar   
    28   13   15 1    
    29   14   83 1    
    30   15   16 1    
    31   15   84 1    
    32   15   85 1    
    33   16   17 1    
    34   17   18 1    
    35   17   86 1    
    36   17   87 1    
    37   18   19 1    
    38   18   37 1    
    39   18   88 1    
    40   19   20 am   BACKBONE|DICT|INTERRES
    41   19   89 1    
    42   20   21 2    
    43   20   22 1    
    44   22   23 1    
    45   22   24 1    
    46   22   90 1    
    47   23   91 1    
    48   23   92 1    
    49   23   93 1    
    50   24   25 am   BACKBONE|DICT|INTERRES
    51   24   94 1    
    52   25   26 2    
    53   25   27 1    
    54   27   28 1    
    55   27   29 1    
    56   27   95 1    
    57   28   96 1    
    58   28   97 1    
    59   28   98 1    
    60   29   30 am   BACKBONE|DICT|INTERRES
    61   29   99 1    
    62   30   31 2    
    63   30   32 1    
    64   32   33 1    
    65   32   34 1    
    66   32  100 1    
    67   33  101 1    
    68   33  102 1    
    69   33  103 1    
    70   34   35 am   BACKBONE|DICT|INTERRES
    71   34  104 1    
    72   35   36 2    
    73   37   38 2    
    74   37   39 am   BACKBONE|DICT|INTERRES
    75   39   40 1    
    76   39  105 1    
    77   40   41 1    
    78   40   42 1    
    79   40  106 1    
    80   41  107 1    
    81   41  108 1    
    82   41  109 1    
    83   42   43 2    
    84   42   44 am   BACKBONE|DICT|INTERRES
    85   44   45 1    
    86   44  110 1    
    87   45   46 1    
    88   45   47 1    
    89   45  111 1    
    90   46  112 1    
    91   46  113 1    
    92   46  114 1    
    93   47   48 2    
    94   47   49 am   BACKBONE|DICT|INTERRES
    95   49   50 1    
    96   49  115 1    
    97   50   51 1    
    98   50   52 1    
    99   50  116 1    
   100   51  117 1    
   101   51  118 1    
   102   51  119 1    
   103   52   53 2    
   104   52   54 am   BACKBONE|DICT|INTERRES
   105   54   55 1    
   106   54  120 1    
   107   55   56 1    
   108   55   57 1    
   109   55  121 1    
   110   56  122 1    
   111   56  123 1    
   112   56  124 1    
   113   57   58 2    
   114   57   59 am   BACKBONE|DICT|INTERRES
   115   59   60 1    
   116   59  125 1    
   117   60   61 1    
   118   60   62 1    
   119   60  126 1    
   120   61  127 1    
   121   61  128 1    
   122   61  129 1    
   123   62   63 2    
   124   62   64 am   BACKBONE|DICT|INTERRES
   125   64   65 1    
   126   64  130 1    
   127   65   66 1    
   128   65   69 1    
   129   65  131 1    
   130   66   67 am   BACKBONE|DICT|INTERRES
   131   66   68 2    
   132   67  132 1    
   133   67  133 1    
   134   69   70 1    
   135   69  134 1    
   136   69  135 1    
   137   70   71 1    
   138   71  136 1    
   139   71  137 1    
@<TRIPOS>SUBSTRUCTURE
     1 UNK         1 GROUP             0       ****    0 ROOT    
