@<TRIPOS>MOLECULE
3R137
137   139    1
SMALL
USER_CHARGES


@<TRIPOS>ATOM
      1 CA         24.5275   -3.8994   -3.0655 C.3       0 UNK        -0.2020 
      2 C          25.6947   -3.0224   -2.6426 C.2       0 UNK         0.4855 
      3 O          26.1049   -2.1419   -3.4023 O.2       0 UNK        -0.5197 
      4 N          26.2031   -3.2508   -1.4224 N.am      1 UNK        -0.4892 
      5 CA         27.3919   -2.6225   -0.8144 C.3       1 UNK         0.0835 
      6 C6         28.7140   -3.0422   -1.5100 C.3       12 UNK        -0.0855 
      7 S7         28.9730   -4.8503   -1.4818 S.3       12 UNK        -0.2931 
      8 C8         30.6640   -4.9771   -2.1497 C.3       12 UNK         0.0378 
      9 C9         30.7679   -4.3319   -3.5229 C.ar      12 UNK        -0.0802 
     10 C10        31.4521   -3.1219   -3.6837 C.ar      12 UNK        -0.0944 
     11 C11        31.4951   -2.4920   -4.9304 C.ar      12 UNK        -0.0787 
     12 C12        30.8368   -3.0832   -6.0112 C.ar      12 UNK        -0.0862 
     13 C13        30.1624   -4.2987   -5.8724 C.ar      12 UNK        -0.0733 
     14 C14        30.1465   -4.9282   -4.6245 C.ar      12 UNK        -0.0832 
     15 C15        29.4758   -4.9161   -7.0882 C.3       12 UNK         0.0240 
     16 S16        27.7888   -5.5446   -6.7793 S.3       12 UNK        -0.2522 
     17 C17        26.9379   -4.1412   -5.9845 C.3       12 UNK        -0.0967 
     18 CA         26.6034   -2.9706   -6.9511 C.3       5 UNK         0.0660 
     19 N          25.2527   -2.4366   -6.7343 N.am      5 UNK        -0.4015 
     20 C          24.6432   -1.5628   -7.5484 C.2       4 UNK         0.4946 
     21 O          25.1433   -1.1265   -8.5840 O.2       4 UNK        -0.5353 
     22 CA         23.2407   -1.0760   -7.1466 C.3       4 UNK         0.0277 
     23 CB         22.1708   -2.0527   -7.6612 C.3       4 UNK        -0.1981 
     24 N          23.0326   -0.8381   -5.7137 N.am      4 UNK        -0.4209 
     25 C          23.7728   -0.0436   -4.9272 C.2       3 UNK         0.4942 
     26 O          24.8273    0.4834   -5.2831 O.2       3 UNK        -0.5208 
     27 CA         23.2390    0.2390   -3.5150 C.3       3 UNK         0.0250 
     28 CB         22.1435   -0.7354   -3.0284 C.3       3 UNK        -0.1990 
     29 N          24.3547    0.2486   -2.5740 N.am      3 UNK        -0.4232 
     30 C          24.4401    1.0242   -1.4851 C.2       2 UNK         0.4993 
     31 O          23.5762    1.8407   -1.1597 O.2       2 UNK        -0.5286 
     32 CA         25.6773    0.8238   -0.5941 C.3       2 UNK         0.0209 
     33 CB         25.4793    1.3380    0.8453 C.3       2 UNK        -0.1931 
     34 N          26.0309   -0.5944   -0.5656 N.am      2 UNK        -0.4546 
     35 C          27.2699   -1.0873   -0.6616 C.2       1 UNK         0.5154 
     36 O          28.2802   -0.3824   -0.6370 O.2       1 UNK        -0.5181 
     37 C          27.6487   -1.8434   -6.8615 C.2       5 UNK         0.5014 
     38 O          28.4159   -1.6327   -7.8059 O.2       5 UNK        -0.5248 
     39 N          27.6182   -1.1157   -5.7353 N.am      6 UNK        -0.4434 
     40 CA         28.4717    0.0383   -5.4684 C.3       6 UNK         0.0363 
     41 CB         28.2504    0.5293   -4.0316 C.3       6 UNK        -0.1936 
     42 C          28.2724    1.1733   -6.4808 C.2       6 UNK         0.5081 
     43 O          29.2595    1.7118   -6.9776 O.2       6 UNK        -0.5248 
     44 N          27.0098    1.4852   -6.8016 N.am      7 UNK        -0.4718 
     45 CA         26.6284    2.4989   -7.7874 C.3       7 UNK         0.0273 
     46 CB         25.1030    2.6829   -7.7697 C.3       7 UNK        -0.1935 
     47 C          27.1187    2.1879   -9.2122 C.2       7 UNK         0.5018 
     48 O          27.4960    3.1160   -9.9285 O.2       7 UNK        -0.5186 
     49 N          27.1093    0.9034   -9.5966 N.am      8 UNK        -0.4240 
     50 CA         27.5869    0.4343  -10.8960 C.3       8 UNK         0.0235 
     51 CB         27.0702   -0.9886  -11.1671 C.3       8 UNK        -0.2000 
     52 C          29.1163    0.4916  -11.0222 C.2       8 UNK         0.4941 
     53 O          29.6139    1.0518  -12.0002 O.2       8 UNK        -0.5273 
     54 N          29.8345   -0.1107  -10.0626 N.am      9 UNK        -0.4262 
     55 CA         31.2894   -0.2812  -10.1561 C.3       9 UNK         0.0264 
     56 CB         31.7171   -1.5295   -9.3736 C.3       9 UNK        -0.1955 
     57 C          32.0952    0.9250   -9.6525 C.2       9 UNK         0.5031 
     58 O          33.2551    1.0600  -10.0455 O.2       9 UNK        -0.5390 
     59 N          31.5208    1.7285   -8.7447 N.am      10 UNK        -0.4204 
     60 CA         32.1271    2.8373   -7.9911 C.3       10 UNK         0.0237 
     61 CB         32.6702    3.9423   -8.9192 C.3       10 UNK        -0.1985 
     62 C          33.1837    2.3984   -6.9580 C.2       10 UNK         0.4970 
     63 O          33.1699    2.9159   -5.8409 O.2       10 UNK        -0.4914 
     64 N          34.0726    1.4714   -7.3408 N.am      11 UNK        -0.4285 
     65 CA         35.2036    0.9490   -6.5514 C.3       11 UNK         0.1007 
     66 C          36.2957    2.0120   -6.2088 C.2       11 UNK         0.5703 
     67 N          36.3719    3.1328   -6.9177 N.am      11 UNK        -0.7361 
     68 O          37.1131    1.8097   -5.3134 O.2       11 UNK        -0.4986 
     69 C69        34.7543    0.1139   -5.3148 C.3       12 UNK        -0.0947 
     70 S70        33.9106   -1.4413   -5.7667 S.3       12 UNK        -0.2240 
     71 C71        32.2401   -1.1730   -5.1028 C.3       12 UNK         0.0194 
     72 H72        24.0006   -3.4640   -3.9129 H         1 UNK         0.0906 
     73 H73        23.8133   -4.0192   -2.2511 H         1 UNK         0.0906 
     74 H74        24.8853   -4.8864   -3.3572 H         1 UNK         0.0906 
     75 H75        25.7936   -3.9881   -0.8647 H         1 UNK         0.3140 
     76 H76        27.4361   -2.9966    0.2099 H         1 UNK         0.1085 
     77 H77        28.7196   -2.6965   -2.5454 H         1 UNK         0.0836 
     78 H78        29.5748   -2.5787   -1.0242 H         1 UNK         0.0836 
     79 H79        31.3628   -4.5177   -1.4487 H         1 UNK         0.0731 
     80 H80        30.9439   -6.0292   -2.2190 H         1 UNK         0.0731 
     81 H81        31.9399   -2.6621   -2.8350 H         1 UNK         0.1312 
     82 H82        30.8388   -2.5960   -6.9700 H         1 UNK         0.1406 
     83 H83        29.6202   -5.8650   -4.5000 H         1 UNK         0.1631 
     84 H84        29.4248   -4.1976   -7.9076 H         1 UNK         0.0717 
     85 H85        30.0906   -5.7413   -7.4492 H         1 UNK         0.0717 
     86 H86        26.0164   -4.5629   -5.5823 H         1 UNK         0.0934 
     87 H87        27.5010   -3.8193   -5.1058 H         1 UNK         0.0934 
     88 H88        26.6217   -3.3466   -7.9766 H         1 UNK         0.0739 
     89 H89        24.7846   -2.7038   -5.8828 H         1 UNK         0.3093 
     90 H90        23.0845   -0.1185   -7.6471 H         1 UNK         0.0818 
     91 H91        21.1658   -1.6569   -7.5133 H         1 UNK         0.0819 
     92 H92        22.2890   -2.2334   -8.7309 H         1 UNK         0.0819 
     93 H93        22.2295   -3.0194   -7.1594 H         1 UNK         0.0819 
     94 H94        22.1870   -1.2245   -5.3198 H         1 UNK         0.3041 
     95 H95        22.8071    1.2410   -3.5616 H         1 UNK         0.0784 
     96 H96        21.2551   -0.6895   -3.6593 H         1 UNK         0.0793 
     97 H97        22.4924   -1.7673   -3.0100 H         1 UNK         0.0793 
     98 H98        21.8183   -0.4835   -2.0187 H         1 UNK         0.0793 
     99 H99        25.1313   -0.3583   -2.8189 H         1 UNK         0.3024 
    100 H100       26.4820    1.3985   -1.0593 H         1 UNK         0.1171 
    101 H101       26.3787    1.1927    1.4440 H         1 UNK         0.0786 
    102 H102       25.2557    2.4055    0.8544 H         1 UNK         0.0786 
    103 H103       24.6568    0.8252    1.3453 H         1 UNK         0.0786 
    104 H104       25.2588   -1.2465   -0.5937 H         1 UNK         0.2977 
    105 H105       26.9549   -1.3666   -5.0068 H         1 UNK         0.3127 
    106 H106       29.5026   -0.2992   -5.5548 H         1 UNK         0.0770 
    107 H107       27.2134    0.8168   -3.8554 H         1 UNK         0.0814 
    108 H108       28.8753    1.3958   -3.8118 H         1 UNK         0.0814 
    109 H109       28.5111   -0.2476   -3.3143 H         1 UNK         0.0814 
    110 H110       26.2520    1.0082   -6.3143 H         1 UNK         0.2983 
    111 H111       27.0901    3.4404   -7.4823 H         1 UNK         0.0947 
    112 H112       24.7947    3.4624   -8.4677 H         1 UNK         0.0806 
    113 H113       24.7495    2.9738   -6.7803 H         1 UNK         0.0806 
    114 H114       24.5862    1.7660   -8.0535 H         1 UNK         0.0806 
    115 H115       26.7332    0.2025   -8.9662 H         1 UNK         0.3000 
    116 H116       27.1692    1.0888  -11.6643 H         1 UNK         0.0850 
    117 H117       25.9811   -1.0102  -11.2091 H         1 UNK         0.0810 
    118 H118       27.3863   -1.6906  -10.3946 H         1 UNK         0.0810 
    119 H119       27.4378   -1.3644  -12.1229 H         1 UNK         0.0810 
    120 H120       29.3532   -0.5582   -9.2863 H         1 UNK         0.3040 
    121 H121       31.5540   -0.4447  -11.2034 H         1 UNK         0.0766 
    122 H122       31.0287   -2.3632   -9.5145 H         1 UNK         0.0812 
    123 H123       31.7906   -1.3094   -8.3104 H         1 UNK         0.0812 
    124 H124       32.7056   -1.8625   -9.6925 H         1 UNK         0.0812 
    125 H125       30.5794    1.5017   -8.4334 H         1 UNK         0.3205 
    126 H126       31.3093    3.2797   -7.4208 H         1 UNK         0.0754 
    127 H127       33.5225    3.6059   -9.5096 H         1 UNK         0.0769 
    128 H128       33.0006    4.8056   -8.3400 H         1 UNK         0.0769 
    129 H129       31.9014    4.2906   -9.6091 H         1 UNK         0.0769 
    130 H130       34.0107    1.1460   -8.3016 H         1 UNK         0.2981 
    131 H131       35.7202    0.2632   -7.2235 H         1 UNK         0.0541 
    132 H132       35.7244    3.3085   -7.6685 H         1 UNK         0.3459 
    133 H133       37.0877    3.8072   -6.6977 H         1 UNK         0.3459 
    134 H134       34.1289    0.7108   -4.6504 H         1 UNK         0.0612 
    135 H135       35.6171   -0.1838   -4.7169 H         1 UNK         0.0612 
    136 H136       31.7059   -0.5105   -5.7837 H         1 UNK         0.0624 
    137 H137       32.2990   -0.6549   -4.1445 H         1 UNK         0.0624 
@<TRIPOS>BOND
     1    1    2 1    
     2    1   72 1    
     3    1   73 1    
     4    1   74 1    
     5    2    3 2    
     6    2    4 am   BACKBONE|DICT|INTERRES
     7    4    5 1    
     8    4   75 1    
     9    5    6 1    
    10    5   35 1    
    11    5   76 1    
    12    6    7 1    
    13    6   77 1    
    14    6   78 1    
    15    7    8 1    
    16    8    9 1    
    17    8   79 1    
    18    8   80 1    
    19    9   10 ar   
    20    9   14 ar   
    21   10   11 ar   
    22   10   81 1    
    23   11   12 ar   
    24   11   71 1    
    25   12   13 ar   
    26   12   82 1    
    27   13   14 ar   
    28   13   15 1    
    29   14   83 1    
    30   15   16 1    
    31   15   84 1    
    32   15   85 1    
    33   16   17 1    
    34   17   18 1    
    35   17   86 1    
    36   17   87 1    
    37   18   19 1    
    38   18   37 1    
    39   18   88 1    
    40   19   20 am   BACKBONE|DICT|INTERRES
    41   19   89 1    
    42   20   21 2    
    43   20   22 1    
    44   22   23 1    
    45   22   24 1    
    46   22   90 1    
    47   23   91 1    
    48   23   92 1    
    49   23   93 1    
    50   24   25 am   BACKBONE|DICT|INTERRES
    51   24   94 1    
    52   25   26 2    
    53   25   27 1    
    54   27   28 1    
    55   27   29 1    
    56   27   95 1    
    57   28   96 1    
    58   28   97 1    
    59   28   98 1    
    60   29   30 am   BACKBONE|DICT|INTERRES
    61   29   99 1    
    62   30   31 2    
    63   30   32 1    
    64   32   33 1    
    65   32   34 1    
    66   32  100 1    
    67   33  101 1    
    68   33  102 1    
    69   33  103 1    
    70   34   35 am   BACKBONE|DICT|INTERRES
    71   34  104 1    
    72   35   36 2    
    73   37   38 2    
    74   37   39 am   BACKBONE|DICT|INTERRES
    75   39   40 1    
    76   39  105 1    
    77   40   41 1    
    78   40   42 1    
    79   40  106 1    
    80   41  107 1    
    81   41  108 1    
    82   41  109 1    
    83   42   43 2    
    84   42   44 am   BACKBONE|DICT|INTERRES
    85   44   45 1    
    86   44  110 1    
    87   45   46 1    
    88   45   47 1    
    89   45  111 1    
    90   46  112 1    
    91   46  113 1    
    92   46  114 1    
    93   47   48 2    
    94   47   49 am   BACKBONE|DICT|INTERRES
    95   49   50 1    
    96   49  115 1    
    97   50   51 1    
    98   50   52 1    
    99   50  116 1    
   100   51  117 1    
   101   51  118 1    
   102   51  119 1    
   103   52   53 2    
   104   52   54 am   BACKBONE|DICT|INTERRES
   105   54   55 1    
   106   54  120 1    
   107   55   56 1    
   108   55   57 1    
   109   55  121 1    
   110   56  122 1    
   111   56  123 1    
   112   56  124 1    
   113   57   58 2    
   114   57   59 am   BACKBONE|DICT|INTERRES
   115   59   60 1    
   116   59  125 1    
   117   60   61 1    
   118   60   62 1    
   119   60  126 1    
   120   61  127 1    
   121   61  128 1    
   122   61  129 1    
   123   62   63 2    
   124   62   64 am   BACKBONE|DICT|INTERRES
   125   64   65 1    
   126   64  130 1    
   127   65   66 1    
   128   65   69 1    
   129   65  131 1    
   130   66   67 am   BACKBONE|DICT|INTERRES
   131   66   68 2    
   132   67  132 1    
   133   67  133 1    
   134   69   70 1    
   135   69  134 1    
   136   69  135 1    
   137   70   71 1    
   138   71  136 1    
   139   71  137 1    
@<TRIPOS>SUBSTRUCTURE
     1 UNK         1 GROUP             0       ****    0 ROOT    
