@<TRIPOS>MOLECULE
3R137
137   139    1
SMALL
USER_CHARGES


@<TRIPOS>ATOM
      1 CA         27.4114   -0.4175    4.2815 C.3       0 UNK        -0.2020 
      2 C          26.9552   -0.0471    2.8783 C.2       0 UNK         0.4855 
      3 O          25.9465    0.6422    2.7236 O.2       0 UNK        -0.5197 
      4 N          27.6953   -0.4901    1.8551 N.am      1 UNK        -0.4892 
      5 CA         27.3740   -0.3070    0.4372 C.3       1 UNK         0.0835 
      6 C6         28.6017   -0.5561   -0.4798 C.3       12 UNK        -0.0855 
      7 S7         29.6055   -2.0292   -0.0568 S.3       12 UNK        -0.2931 
      8 C8         29.2990   -3.1267   -1.4851 C.3       12 UNK         0.0378 
      9 C9         29.9805   -2.7397   -2.8024 C.ar      12 UNK        -0.0802 
     10 C10        30.7201   -1.5609   -2.9746 C.ar      12 UNK        -0.0944 
     11 C11        31.2681   -1.2203   -4.2157 C.ar      12 UNK        -0.0787 
     12 C12        31.0868   -2.0930   -5.2976 C.ar      12 UNK        -0.0862 
     13 C13        30.4018   -3.2992   -5.1312 C.ar      12 UNK        -0.0733 
     14 C14        29.8446   -3.6081   -3.8883 C.ar      12 UNK        -0.0832 
     15 C15        30.2915   -4.2965   -6.2743 C.3       12 UNK         0.0240 
     16 S16        28.6241   -4.3193   -7.0026 S.3       12 UNK        -0.2522 
     17 C17        28.8435   -3.3463   -8.5339 C.3       12 UNK        -0.0967 
     18 CA         27.9605   -2.0784   -8.6133 C.3       5 UNK         0.0660 
     19 N          26.5570   -2.3498   -8.3006 N.am      5 UNK        -0.4015 
     20 C          25.5405   -1.5190   -8.5640 C.2       4 UNK         0.4946 
     21 O          25.6671   -0.4529   -9.1648 O.2       4 UNK        -0.5353 
     22 CA         24.1644   -1.9178   -8.0051 C.3       4 UNK         0.0277 
     23 CB         23.4278   -2.8416   -8.9879 C.3       4 UNK        -0.1981 
     24 N          24.2430   -2.5563   -6.6846 N.am      4 UNK        -0.4209 
     25 C          24.7176   -1.9538   -5.5860 C.2       3 UNK         0.4942 
     26 O          25.1466   -0.7970   -5.5717 O.2       3 UNK        -0.5208 
     27 CA         24.7778   -2.7929   -4.3070 C.3       3 UNK         0.0250 
     28 CB         26.1167   -3.5445   -4.2085 C.3       3 UNK        -0.1990 
     29 N          24.6377   -1.8970   -3.1633 N.am      3 UNK        -0.4232 
     30 C          23.9701   -2.1809   -2.0398 C.2       2 UNK         0.4993 
     31 O          23.4547   -3.2767   -1.8067 O.2       2 UNK        -0.5286 
     32 CA         23.8575   -1.0346   -1.0171 C.3       2 UNK         0.0209 
     33 CB         23.0083   -1.4074    0.2188 C.3       2 UNK        -0.1931 
     34 N          25.1646   -0.4999   -0.6085 N.am      2 UNK        -0.4546 
     35 C          26.1458   -1.1528    0.0356 C.2       1 UNK         0.5154 
     36 O          26.1086   -2.3497    0.3310 O.2       1 UNK        -0.5181 
     37 C          28.5458   -0.9104   -7.7954 C.2       5 UNK         0.5014 
     38 O          29.4279   -0.2234   -8.3074 O.2       5 UNK        -0.5248 
     39 N          28.0361   -0.6682   -6.5781 N.am      6 UNK        -0.4434 
     40 CA         28.4142    0.4834   -5.7570 C.3       6 UNK         0.0363 
     41 CB         27.9848    0.2650   -4.2973 C.3       6 UNK        -0.1936 
     42 C          27.8133    1.7793   -6.3156 C.2       6 UNK         0.5081 
     43 O          28.5167    2.7850   -6.3990 O.2       6 UNK        -0.5248 
     44 N          26.5393    1.7181   -6.7313 N.am      7 UNK        -0.4718 
     45 CA         25.8264    2.8145   -7.3937 C.3       7 UNK         0.0273 
     46 CB         24.3386    2.4535   -7.5298 C.3       7 UNK        -0.1935 
     47 C          26.4342    3.1801   -8.7602 C.2       7 UNK         0.5018 
     48 O          26.5516    4.3652   -9.0732 O.2       7 UNK        -0.5186 
     49 N          26.8400    2.1607   -9.5303 N.am      8 UNK        -0.4240 
     50 CA         27.5437    2.3045  -10.8085 C.3       8 UNK         0.0235 
     51 CB         27.4382    0.9814  -11.5850 C.3       8 UNK        -0.2000 
     52 C          29.0230    2.7152  -10.6678 C.2       8 UNK         0.4941 
     53 O          29.6236    3.1021  -11.6711 O.2       8 UNK        -0.5273 
     54 N          29.5867    2.6006   -9.4547 N.am      9 UNK        -0.4262 
     55 CA         30.9983    2.7970   -9.0995 C.3       9 UNK         0.0264 
     56 CB         31.4171    4.2721   -9.2725 C.3       9 UNK        -0.1955 
     57 C          31.9369    1.8082   -9.8225 C.2       9 UNK         0.5031 
     58 O          33.0359    2.1809  -10.2383 O.2       9 UNK        -0.5390 
     59 N          31.4907    0.5525   -9.9390 N.am      10 UNK        -0.4204 
     60 CA         32.2090   -0.5728  -10.5346 C.3       10 UNK         0.0237 
     61 CB         31.2302   -1.3663  -11.4211 C.3       10 UNK        -0.1985 
     62 C          32.8235   -1.4264   -9.4127 C.2       10 UNK         0.4970 
     63 O          32.5561   -2.6257   -9.3213 O.2       10 UNK        -0.4914 
     64 N          33.6021   -0.7684   -8.5485 N.am      11 UNK        -0.4285 
     65 CA         34.1598   -1.3307   -7.3091 C.3       11 UNK         0.1007 
     66 C          35.5530   -2.0008   -7.4810 C.2       11 UNK         0.5703 
     67 N          36.1571   -1.9897   -8.6636 N.am      11 UNK        -0.7361 
     68 O          36.0921   -2.5540   -6.5254 O.2       11 UNK        -0.4986 
     69 C69        34.1659   -0.2778   -6.1660 C.3       12 UNK        -0.0947 
     70 S70        32.5788    0.6155   -5.9782 S.3       12 UNK        -0.2240 
     71 C71        32.0220    0.1093   -4.3149 C.3       12 UNK         0.0194 
     72 H72        27.6060    0.4832    4.8632 H         1 UNK         0.0906 
     73 H73        26.6355   -0.9902    4.7889 H         1 UNK         0.0906 
     74 H74        28.3219   -1.0166    4.2696 H         1 UNK         0.0906 
     75 H75        28.4960   -1.0825    2.0294 H         1 UNK         0.3140 
     76 H76        27.0984    0.7432    0.3132 H         1 UNK         0.1085 
     77 H77        28.2981   -0.5989   -1.5264 H         1 UNK         0.0836 
     78 H78        29.2681    0.3052   -0.4125 H         1 UNK         0.0836 
     79 H79        29.6306   -4.1282   -1.2073 H         1 UNK         0.0731 
     80 H80        28.2220   -3.1951   -1.6473 H         1 UNK         0.0731 
     81 H81        30.8595   -0.8779   -2.1500 H         1 UNK         0.1312 
     82 H82        31.4724   -1.8470   -6.2743 H         1 UNK         0.1406 
     83 H83        29.2969   -4.5337   -3.7694 H         1 UNK         0.1631 
     84 H84        30.5100   -5.2946   -5.8920 H         1 UNK         0.0717 
     85 H85        31.0483   -4.1030   -7.0359 H         1 UNK         0.0717 
     86 H86        29.8944   -3.0930   -8.6849 H         1 UNK         0.0934 
     87 H87        28.5913   -4.0047   -9.3667 H         1 UNK         0.0934 
     88 H88        27.9856   -1.7494   -9.6539 H         1 UNK         0.0739 
     89 H89        26.3742   -3.2074   -7.8000 H         1 UNK         0.3093 
     90 H90        23.5805   -1.0013   -7.8953 H         1 UNK         0.0818 
     91 H91        22.4144   -3.0557   -8.6478 H         1 UNK         0.0819 
     92 H92        23.3450   -2.3764   -9.9713 H         1 UNK         0.0819 
     93 H93        23.9465   -3.7920   -9.1199 H         1 UNK         0.0819 
     94 H94        23.9118   -3.5086   -6.6178 H         1 UNK         0.3041 
     95 H95        23.9544   -3.5104   -4.3236 H         1 UNK         0.0784 
     96 H96        26.2328   -4.2506   -5.0311 H         1 UNK         0.0793 
     97 H97        26.9671   -2.8625   -4.2382 H         1 UNK         0.0793 
     98 H98        26.1818   -4.1158   -3.2823 H         1 UNK         0.0793 
     99 H99        24.9841   -0.9595   -3.3216 H         1 UNK         0.3024 
    100 H100       23.3359   -0.2244   -1.5301 H         1 UNK         0.1171 
    101 H101       22.0003   -1.7026   -0.0755 H         1 UNK         0.0786 
    102 H102       22.9119   -0.5640    0.9026 H         1 UNK         0.0786 
    103 H103       23.4398   -2.2405    0.7746 H         1 UNK         0.0786 
    104 H104       25.3026    0.4822   -0.8052 H         1 UNK         0.2977 
    105 H105       27.2706   -1.2339   -6.2406 H         1 UNK         0.3127 
    106 H106       29.5015    0.5731   -5.7831 H         1 UNK         0.0770 
    107 H107       26.9141    0.4044   -4.1535 H         1 UNK         0.0814 
    108 H108       28.4915    0.9731   -3.6409 H         1 UNK         0.0814 
    109 H109       28.2372   -0.7372   -3.9564 H         1 UNK         0.0814 
    110 H110       26.0287    0.8528   -6.5902 H         1 UNK         0.2983 
    111 H111       25.9062    3.6955   -6.7530 H         1 UNK         0.0947 
    112 H112       23.7786    3.2747   -7.9790 H         1 UNK         0.0806 
    113 H113       23.8898    2.2480   -6.5577 H         1 UNK         0.0806 
    114 H114       24.1895    1.5756   -8.1587 H         1 UNK         0.0806 
    115 H115       26.6123    1.2132   -9.2369 H         1 UNK         0.3000 
    116 H116       27.0430    3.0826  -11.3886 H         1 UNK         0.0850 
    117 H117       27.8887    1.0706  -12.5745 H         1 UNK         0.0810 
    118 H118       26.3989    0.6843  -11.7275 H         1 UNK         0.0810 
    119 H119       27.9511    0.1713  -11.0665 H         1 UNK         0.0810 
    120 H120       29.0023    2.2619   -8.7011 H         1 UNK         0.3040 
    121 H121       31.0726    2.5582   -8.0373 H         1 UNK         0.0766 
    122 H122       32.4201    4.4409   -8.8788 H         1 UNK         0.0812 
    123 H123       30.7426    4.9400   -8.7367 H         1 UNK         0.0812 
    124 H124       31.4257    4.5719  -10.3208 H         1 UNK         0.0812 
    125 H125       30.6305    0.3132   -9.4411 H         1 UNK         0.3205 
    126 H126       33.0254   -0.2139  -11.1646 H         1 UNK         0.0754 
    127 H127       31.7300   -2.2088  -11.9008 H         1 UNK         0.0769 
    128 H128       30.8193   -0.7393  -12.2127 H         1 UNK         0.0769 
    129 H129       30.3945   -1.7641  -10.8446 H         1 UNK         0.0769 
    130 H130       33.7714    0.2153   -8.7025 H         1 UNK         0.2981 
    131 H131       33.5130   -2.1467   -6.9878 H         1 UNK         0.0541 
    132 H132       35.7210   -1.5461   -9.4557 H         1 UNK         0.3459 
    133 H133       37.0571   -2.4323   -8.7630 H         1 UNK         0.3459 
    134 H134       34.9384    0.4710   -6.3495 H         1 UNK         0.0612 
    135 H135       34.4258   -0.7534   -5.2189 H         1 UNK         0.0612 
    136 H136       32.8781    0.0907   -3.6393 H         1 UNK         0.0624 
    137 H137       31.3636    0.8972   -3.9463 H         1 UNK         0.0624 
@<TRIPOS>BOND
     1    1    2 1    
     2    1   72 1    
     3    1   73 1    
     4    1   74 1    
     5    2    3 2    
     6    2    4 am   BACKBONE|DICT|INTERRES
     7    4    5 1    
     8    4   75 1    
     9    5    6 1    
    10    5   35 1    
    11    5   76 1    
    12    6    7 1    
    13    6   77 1    
    14    6   78 1    
    15    7    8 1    
    16    8    9 1    
    17    8   79 1    
    18    8   80 1    
    19    9   10 ar   
    20    9   14 ar   
    21   10   11 ar   
    22   10   81 1    
    23   11   12 ar   
    24   11   71 1    
    25   12   13 ar   
    26   12   82 1    
    27   13   14 ar   
    28   13   15 1    
    29   14   83 1    
    30   15   16 1    
    31   15   84 1    
    32   15   85 1    
    33   16   17 1    
    34   17   18 1    
    35   17   86 1    
    36   17   87 1    
    37   18   19 1    
    38   18   37 1    
    39   18   88 1    
    40   19   20 am   BACKBONE|DICT|INTERRES
    41   19   89 1    
    42   20   21 2    
    43   20   22 1    
    44   22   23 1    
    45   22   24 1    
    46   22   90 1    
    47   23   91 1    
    48   23   92 1    
    49   23   93 1    
    50   24   25 am   BACKBONE|DICT|INTERRES
    51   24   94 1    
    52   25   26 2    
    53   25   27 1    
    54   27   28 1    
    55   27   29 1    
    56   27   95 1    
    57   28   96 1    
    58   28   97 1    
    59   28   98 1    
    60   29   30 am   BACKBONE|DICT|INTERRES
    61   29   99 1    
    62   30   31 2    
    63   30   32 1    
    64   32   33 1    
    65   32   34 1    
    66   32  100 1    
    67   33  101 1    
    68   33  102 1    
    69   33  103 1    
    70   34   35 am   BACKBONE|DICT|INTERRES
    71   34  104 1    
    72   35   36 2    
    73   37   38 2    
    74   37   39 am   BACKBONE|DICT|INTERRES
    75   39   40 1    
    76   39  105 1    
    77   40   41 1    
    78   40   42 1    
    79   40  106 1    
    80   41  107 1    
    81   41  108 1    
    82   41  109 1    
    83   42   43 2    
    84   42   44 am   BACKBONE|DICT|INTERRES
    85   44   45 1    
    86   44  110 1    
    87   45   46 1    
    88   45   47 1    
    89   45  111 1    
    90   46  112 1    
    91   46  113 1    
    92   46  114 1    
    93   47   48 2    
    94   47   49 am   BACKBONE|DICT|INTERRES
    95   49   50 1    
    96   49  115 1    
    97   50   51 1    
    98   50   52 1    
    99   50  116 1    
   100   51  117 1    
   101   51  118 1    
   102   51  119 1    
   103   52   53 2    
   104   52   54 am   BACKBONE|DICT|INTERRES
   105   54   55 1    
   106   54  120 1    
   107   55   56 1    
   108   55   57 1    
   109   55  121 1    
   110   56  122 1    
   111   56  123 1    
   112   56  124 1    
   113   57   58 2    
   114   57   59 am   BACKBONE|DICT|INTERRES
   115   59   60 1    
   116   59  125 1    
   117   60   61 1    
   118   60   62 1    
   119   60  126 1    
   120   61  127 1    
   121   61  128 1    
   122   61  129 1    
   123   62   63 2    
   124   62   64 am   BACKBONE|DICT|INTERRES
   125   64   65 1    
   126   64  130 1    
   127   65   66 1    
   128   65   69 1    
   129   65  131 1    
   130   66   67 am   BACKBONE|DICT|INTERRES
   131   66   68 2    
   132   67  132 1    
   133   67  133 1    
   134   69   70 1    
   135   69  134 1    
   136   69  135 1    
   137   70   71 1    
   138   71  136 1    
   139   71  137 1    
@<TRIPOS>SUBSTRUCTURE
     1 UNK         1 GROUP             0       ****    0 ROOT    
