@<TRIPOS>MOLECULE
3R137
137   139    1
SMALL
USER_CHARGES


@<TRIPOS>ATOM
      1 CA         29.5531   -0.3205   -2.9639 C.3       0 UNK        -0.2020 
      2 C          29.8591   -0.1485   -1.4791 C.2       0 UNK         0.4855 
      3 O          30.3955    0.8871   -1.0908 O.2       0 UNK        -0.5197 
      4 N          29.5532   -1.1227   -0.6105 N.am      1 UNK        -0.4892 
      5 CA         28.8250   -2.3653   -0.8897 C.3       1 UNK         0.0835 
      6 C6         29.0661   -3.3994    0.2404 C.3       12 UNK        -0.0855 
      7 S7         28.5503   -5.0956   -0.2027 S.3       12 UNK        -0.2931 
      8 C8         30.1137   -5.8330   -0.7747 C.3       12 UNK         0.0378 
      9 C9         30.6035   -5.1846   -2.0609 C.ar      12 UNK        -0.0802 
     10 C10        31.6872   -4.3013   -2.0380 C.ar      12 UNK        -0.0944 
     11 C11        32.1435   -3.7021   -3.2163 C.ar      12 UNK        -0.0787 
     12 C12        31.5059   -4.0015   -4.4245 C.ar      12 UNK        -0.0862 
     13 C13        30.4045   -4.8621   -4.4575 C.ar      12 UNK        -0.0733 
     14 C14        29.9663   -5.4621   -3.2738 C.ar      12 UNK        -0.0832 
     15 C15        29.6822   -5.1359   -5.7704 C.3       12 UNK         0.0240 
     16 S16        28.0274   -4.3713   -5.8085 S.3       12 UNK        -0.2522 
     17 C17        28.4235   -2.5998   -5.6327 C.3       12 UNK        -0.0967 
     18 CA         27.7817   -1.7167   -6.7285 C.3       5 UNK         0.0660 
     19 N          26.3202   -1.8344   -6.7576 N.am      5 UNK        -0.4015 
     20 C          25.5277   -1.3558   -7.7268 C.2       4 UNK         0.4946 
     21 O          25.9408   -0.7777   -8.7304 O.2       4 UNK        -0.5353 
     22 CA         24.0114   -1.5148   -7.5226 C.3       4 UNK         0.0277 
     23 CB         23.5570   -2.9327   -7.9051 C.3       4 UNK        -0.1981 
     24 N          23.5922   -1.2140   -6.1513 N.am      4 UNK        -0.4209 
     25 C          23.6747   -0.0013   -5.5845 C.2       3 UNK         0.4942 
     26 O          24.0559    1.0069   -6.1768 O.2       3 UNK        -0.5208 
     27 CA         23.3286    0.0943   -4.0879 C.3       3 UNK         0.0250 
     28 CB         21.8187    0.3069   -3.8957 C.3       3 UNK        -0.1990 
     29 N          23.7699   -1.0635   -3.2998 N.am      3 UNK        -0.4232 
     30 C          25.0370   -1.4928   -3.2182 C.2       2 UNK         0.4993 
     31 O          25.9727   -0.9791   -3.8357 O.2       2 UNK        -0.5286 
     32 CA         25.2835   -2.7445   -2.3611 C.3       2 UNK         0.0209 
     33 CB         24.8705   -4.0086   -3.1339 C.3       2 UNK        -0.1931 
     34 N          26.6896   -2.8759   -1.9755 N.am      2 UNK        -0.4546 
     35 C          27.3216   -2.0846   -1.0996 C.2       1 UNK         0.5154 
     36 O          26.7667   -1.1876   -0.4587 O.2       1 UNK        -0.5181 
     37 C          28.2258   -0.2536   -6.5461 C.2       5 UNK         0.5014 
     38 O          29.2309    0.1541   -7.1273 O.2       5 UNK        -0.5248 
     39 N          27.4805    0.5133   -5.7390 N.am      6 UNK        -0.4434 
     40 CA         27.6756    1.9501   -5.5644 C.3       6 UNK         0.0363 
     41 CB         26.8258    2.4584   -4.3893 C.3       6 UNK        -0.1936 
     42 C          27.3713    2.7207   -6.8591 C.2       6 UNK         0.5081 
     43 O          28.2165    3.4944   -7.3081 O.2       6 UNK        -0.5248 
     44 N          26.1960    2.4671   -7.4522 N.am      7 UNK        -0.4718 
     45 CA         25.7282    3.1011   -8.6878 C.3       7 UNK         0.0273 
     46 CB         24.2626    2.7141   -8.9416 C.3       7 UNK        -0.1935 
     47 C          26.5873    2.7794   -9.9217 C.2       7 UNK         0.5018 
     48 O          26.8239    3.6767  -10.7319 O.2       7 UNK        -0.5186 
     49 N          27.0377    1.5252  -10.0443 N.am      8 UNK        -0.4240 
     50 CA         27.8611    1.0388  -11.1469 C.3       8 UNK         0.0235 
     51 CB         26.9932    0.1493  -12.0580 C.3       8 UNK        -0.2000 
     52 C          29.0746    0.2833  -10.5749 C.2       8 UNK         0.4941 
     53 O          29.0112   -0.9397  -10.4544 O.2       8 UNK        -0.5273 
     54 N          30.1714    0.9610  -10.2118 N.am      9 UNK        -0.4262 
     55 CA         30.4075    2.4040  -10.2393 C.3       9 UNK         0.0264 
     56 CB         30.9140    2.8366  -11.6325 C.3       9 UNK        -0.1955 
     57 C          31.4277    2.7020   -9.1354 C.2       9 UNK         0.5031 
     58 O          32.6251    2.7678   -9.4207 O.2       9 UNK        -0.5390 
     59 N          30.9391    2.8086   -7.8905 N.am      10 UNK        -0.4204 
     60 CA         31.7107    2.8546   -6.6407 C.3       10 UNK         0.0237 
     61 CB         32.4932    4.1798   -6.5196 C.3       10 UNK        -0.1985 
     62 C          32.5971    1.6022   -6.4887 C.2       10 UNK         0.4970 
     63 O          33.8207    1.7164   -6.3937 O.2       10 UNK        -0.4914 
     64 N          31.9416    0.4349   -6.5213 N.am      11 UNK        -0.4285 
     65 CA         32.5290   -0.9030   -6.6799 C.3       11 UNK         0.1007 
     66 C          32.9862   -1.1418   -8.1511 C.2       11 UNK         0.5703 
     67 N          33.9832   -1.9825   -8.3966 N.am      11 UNK        -0.7361 
     68 O          32.3967   -0.6121   -9.0921 O.2       11 UNK        -0.4986 
     69 C69        33.5852   -1.2862   -5.5965 C.3       12 UNK        -0.0947 
     70 S70        32.9794   -1.1131   -3.8814 S.3       12 UNK        -0.2240 
     71 C71        33.3388   -2.7557   -3.1719 C.3       12 UNK         0.0194 
     72 H72        29.9665   -1.2525   -3.3462 H         1 UNK         0.0906 
     73 H73        28.4787   -0.3041   -3.1385 H         1 UNK         0.0906 
     74 H74        29.9956    0.4910   -3.5414 H         1 UNK         0.0906 
     75 H75        29.7447   -0.9555    0.3669 H         1 UNK         0.3140 
     76 H76        29.2233   -2.7808   -1.8160 H         1 UNK         0.1085 
     77 H77        28.5438   -3.1042    1.1528 H         1 UNK         0.0836 
     78 H78        30.1245   -3.4240    0.5051 H         1 UNK         0.0836 
     79 H79        30.8642   -5.7568    0.0139 H         1 UNK         0.0731 
     80 H80        29.9595   -6.8995   -0.9450 H         1 UNK         0.0731 
     81 H81        32.1772   -4.0816   -1.0992 H         1 UNK         0.1312 
     82 H82        31.8596   -3.5543   -5.3407 H         1 UNK         0.1406 
     83 H83        29.1173   -6.1325   -3.2944 H         1 UNK         0.1631 
     84 H84        29.5777   -6.2131   -5.9068 H         1 UNK         0.0717 
     85 H85        30.2632   -4.7743   -6.6204 H         1 UNK         0.0717 
     86 H86        28.0967   -2.2889   -4.6402 H         1 UNK         0.0934 
     87 H87        29.5060   -2.4694   -5.6476 H         1 UNK         0.0934 
     88 H88        28.1582   -2.0472   -7.6994 H         1 UNK         0.0739 
     89 H89        25.8967   -2.2572   -5.9456 H         1 UNK         0.3093 
     90 H90        23.5130   -0.8062   -8.1878 H         1 UNK         0.0818 
     91 H91        22.4729   -3.0311   -7.8463 H         1 UNK         0.0819 
     92 H92        23.8465   -3.1698   -8.9299 H         1 UNK         0.0819 
     93 H93        23.9995   -3.6914   -7.2582 H         1 UNK         0.0819 
     94 H94        23.2566   -1.9838   -5.5914 H         1 UNK         0.3041 
     95 H95        23.8472    0.9699   -3.6921 H         1 UNK         0.0784 
     96 H96        21.4727    1.1749   -4.4591 H         1 UNK         0.0793 
     97 H97        21.2410   -0.5536   -4.2356 H         1 UNK         0.0793 
     98 H98        21.5727    0.4851   -2.8487 H         1 UNK         0.0793 
     99 H99        23.0560   -1.5483   -2.7747 H         1 UNK         0.3024 
    100 H100       24.6840   -2.6655   -1.4512 H         1 UNK         0.1171 
    101 H101       23.8137   -3.9826   -3.4025 H         1 UNK         0.0786 
    102 H102       25.4393   -4.1229   -4.0575 H         1 UNK         0.0786 
    103 H103       25.0251   -4.9064   -2.5347 H         1 UNK         0.0786 
    104 H104       27.2146   -3.6011   -2.4421 H         1 UNK         0.2977 
    105 H105       26.7259    0.0771   -5.2133 H         1 UNK         0.3127 
    106 H106       28.7243    2.1160   -5.3121 H         1 UNK         0.0770 
    107 H107       25.7591    2.3339   -4.5732 H         1 UNK         0.0814 
    108 H108       27.0034    3.5199   -4.2132 H         1 UNK         0.0814 
    109 H109       27.0684    1.9304   -3.4668 H         1 UNK         0.0814 
    110 H110       25.5458    1.8269   -7.0004 H         1 UNK         0.2983 
    111 H111       25.7718    4.1818   -8.5359 H         1 UNK         0.0947 
    112 H112       23.8838    3.1842   -9.8501 H         1 UNK         0.0806 
    113 H113       23.6207    3.0325   -8.1199 H         1 UNK         0.0806 
    114 H114       24.1466    1.6356   -9.0570 H         1 UNK         0.0806 
    115 H115       26.7692    0.8248   -9.3552 H         1 UNK         0.3000 
    116 H116       28.2184    1.8654  -11.7591 H         1 UNK         0.0850 
    117 H117       27.5845   -0.2681  -12.8739 H         1 UNK         0.0810 
    118 H118       26.1781    0.7188  -12.5045 H         1 UNK         0.0810 
    119 H119       26.5542   -0.6855  -11.5096 H         1 UNK         0.0810 
    120 H120       30.9398    0.4245   -9.8130 H         1 UNK         0.3040 
    121 H121       29.4946    2.9512  -10.0025 H         1 UNK         0.0766 
    122 H122       31.1669    3.8976  -11.6380 H         1 UNK         0.0812 
    123 H123       30.1722    2.6827  -12.4139 H         1 UNK         0.0812 
    124 H124       31.8115    2.2880  -11.9217 H         1 UNK         0.0812 
    125 H125       29.9281    2.7929   -7.7707 H         1 UNK         0.3205 
    126 H126       30.9875    2.8259   -5.8249 H         1 UNK         0.0754 
    127 H127       32.9963    4.2464   -5.5543 H         1 UNK         0.0769 
    128 H128       31.8281    5.0397   -6.5993 H         1 UNK         0.0769 
    129 H129       33.2581    4.2754   -7.2908 H         1 UNK         0.0769 
    130 H130       30.9365    0.4599   -6.6881 H         1 UNK         0.2981 
    131 H131       31.6853   -1.5806   -6.5549 H         1 UNK         0.0541 
    132 H132       34.2546   -2.1468   -9.3532 H         1 UNK         0.3459 
    133 H133       34.4784   -2.4419   -7.6495 H         1 UNK         0.3459 
    134 H134       34.4866   -0.6816   -5.7004 H         1 UNK         0.0612 
    135 H135       33.9062   -2.3174   -5.7436 H         1 UNK         0.0612 
    136 H136       34.1900   -3.2156   -3.6747 H         1 UNK         0.0624 
    137 H137       33.6537   -2.6000   -2.1390 H         1 UNK         0.0624 
@<TRIPOS>BOND
     1    1    2 1    
     2    1   72 1    
     3    1   73 1    
     4    1   74 1    
     5    2    3 2    
     6    2    4 am   BACKBONE|DICT|INTERRES
     7    4    5 1    
     8    4   75 1    
     9    5    6 1    
    10    5   35 1    
    11    5   76 1    
    12    6    7 1    
    13    6   77 1    
    14    6   78 1    
    15    7    8 1    
    16    8    9 1    
    17    8   79 1    
    18    8   80 1    
    19    9   10 ar   
    20    9   14 ar   
    21   10   11 ar   
    22   10   81 1    
    23   11   12 ar   
    24   11   71 1    
    25   12   13 ar   
    26   12   82 1    
    27   13   14 ar   
    28   13   15 1    
    29   14   83 1    
    30   15   16 1    
    31   15   84 1    
    32   15   85 1    
    33   16   17 1    
    34   17   18 1    
    35   17   86 1    
    36   17   87 1    
    37   18   19 1    
    38   18   37 1    
    39   18   88 1    
    40   19   20 am   BACKBONE|DICT|INTERRES
    41   19   89 1    
    42   20   21 2    
    43   20   22 1    
    44   22   23 1    
    45   22   24 1    
    46   22   90 1    
    47   23   91 1    
    48   23   92 1    
    49   23   93 1    
    50   24   25 am   BACKBONE|DICT|INTERRES
    51   24   94 1    
    52   25   26 2    
    53   25   27 1    
    54   27   28 1    
    55   27   29 1    
    56   27   95 1    
    57   28   96 1    
    58   28   97 1    
    59   28   98 1    
    60   29   30 am   BACKBONE|DICT|INTERRES
    61   29   99 1    
    62   30   31 2    
    63   30   32 1    
    64   32   33 1    
    65   32   34 1    
    66   32  100 1    
    67   33  101 1    
    68   33  102 1    
    69   33  103 1    
    70   34   35 am   BACKBONE|DICT|INTERRES
    71   34  104 1    
    72   35   36 2    
    73   37   38 2    
    74   37   39 am   BACKBONE|DICT|INTERRES
    75   39   40 1    
    76   39  105 1    
    77   40   41 1    
    78   40   42 1    
    79   40  106 1    
    80   41  107 1    
    81   41  108 1    
    82   41  109 1    
    83   42   43 2    
    84   42   44 am   BACKBONE|DICT|INTERRES
    85   44   45 1    
    86   44  110 1    
    87   45   46 1    
    88   45   47 1    
    89   45  111 1    
    90   46  112 1    
    91   46  113 1    
    92   46  114 1    
    93   47   48 2    
    94   47   49 am   BACKBONE|DICT|INTERRES
    95   49   50 1    
    96   49  115 1    
    97   50   51 1    
    98   50   52 1    
    99   50  116 1    
   100   51  117 1    
   101   51  118 1    
   102   51  119 1    
   103   52   53 2    
   104   52   54 am   BACKBONE|DICT|INTERRES
   105   54   55 1    
   106   54  120 1    
   107   55   56 1    
   108   55   57 1    
   109   55  121 1    
   110   56  122 1    
   111   56  123 1    
   112   56  124 1    
   113   57   58 2    
   114   57   59 am   BACKBONE|DICT|INTERRES
   115   59   60 1    
   116   59  125 1    
   117   60   61 1    
   118   60   62 1    
   119   60  126 1    
   120   61  127 1    
   121   61  128 1    
   122   61  129 1    
   123   62   63 2    
   124   62   64 am   BACKBONE|DICT|INTERRES
   125   64   65 1    
   126   64  130 1    
   127   65   66 1    
   128   65   69 1    
   129   65  131 1    
   130   66   67 am   BACKBONE|DICT|INTERRES
   131   66   68 2    
   132   67  132 1    
   133   67  133 1    
   134   69   70 1    
   135   69  134 1    
   136   69  135 1    
   137   70   71 1    
   138   71  136 1    
   139   71  137 1    
@<TRIPOS>SUBSTRUCTURE
     1 UNK         1 GROUP             0       ****    0 ROOT    
