@<TRIPOS>MOLECULE
3R137
137   139    1
SMALL
USER_CHARGES


@<TRIPOS>ATOM
      1 CA         26.9242   -6.0828   -6.2571 C.3       0 UNK        -0.2020 
      2 C          26.8315   -5.4460   -4.8793 C.2       0 UNK         0.4855 
      3 O          25.7299   -5.1452   -4.4189 O.2       0 UNK        -0.5197 
      4 N          27.9782   -5.2318   -4.2191 N.am      1 UNK        -0.4892 
      5 CA         28.0800   -4.6326   -2.8835 C.3       1 UNK         0.0835 
      6 C6         29.5345   -4.6664   -2.3572 C.3       12 UNK        -0.0855 
      7 S7         29.6215   -4.3371   -0.5622 S.3       12 UNK        -0.2931 
      8 C8         31.2963   -3.6452   -0.3746 C.3       12 UNK         0.0378 
      9 C9         31.4923   -2.3452   -1.1450 C.ar      12 UNK        -0.0802 
     10 C10        32.3900   -2.2970   -2.2155 C.ar      12 UNK        -0.0944 
     11 C11        32.6002   -1.1049   -2.9131 C.ar      12 UNK        -0.0787 
     12 C12        31.9182    0.0497   -2.5201 C.ar      12 UNK        -0.0862 
     13 C13        31.0019    0.0146   -1.4638 C.ar      12 UNK        -0.0733 
     14 C14        30.7982   -1.1876   -0.7766 C.ar      12 UNK        -0.0832 
     15 C15        30.2419    1.2713   -1.0462 C.3       12 UNK         0.0240 
     16 S16        29.5607    2.2229   -2.4495 S.3       12 UNK        -0.2522 
     17 C17        28.3765    1.0354   -3.1618 C.3       12 UNK        -0.0967 
     18 CA         28.2083    1.2081   -4.6935 C.3       5 UNK         0.0660 
     19 N          27.7954   -0.0417   -5.3351 N.am      5 UNK        -0.4015 
     20 C          27.6464   -0.2326   -6.6536 C.2       4 UNK         0.4946 
     21 O          27.9324    0.6016   -7.5126 O.2       4 UNK        -0.5353 
     22 CA         27.0237   -1.5695   -7.0860 C.3       4 UNK         0.0277 
     23 CB         28.0902   -2.6702   -7.1917 C.3       4 UNK        -0.1981 
     24 N          25.9492   -1.9934   -6.1838 N.am      4 UNK        -0.4209 
     25 C          24.7706   -1.3627   -6.0705 C.2       3 UNK         0.4942 
     26 O          24.4400   -0.3993   -6.7601 O.2       3 UNK        -0.5208 
     27 CA         23.8239   -1.8550   -4.9649 C.3       3 UNK         0.0250 
     28 CB         23.0401   -3.0945   -5.4239 C.3       3 UNK        -0.1990 
     29 N          24.5348   -2.1403   -3.7157 N.am      3 UNK        -0.4232 
     30 C          25.1054   -1.1955   -2.9522 C.2       2 UNK         0.4993 
     31 O          25.0525    0.0071   -3.2044 O.2       2 UNK        -0.5286 
     32 CA         25.9110   -1.6587   -1.7266 C.3       2 UNK         0.0209 
     33 CB         25.0089   -1.7292   -0.4849 C.3       2 UNK        -0.1931 
     34 N          26.5927   -2.9422   -1.9096 N.am      2 UNK        -0.4546 
     35 C          27.4976   -3.2040   -2.8627 C.2       1 UNK         0.5154 
     36 O          27.8555   -2.3855   -3.7134 O.2       1 UNK        -0.5181 
     37 C          27.2485    2.3676   -5.0386 C.2       5 UNK         0.5014 
     38 O          27.7001    3.4028   -5.5300 O.2       5 UNK        -0.5248 
     39 N          25.9404    2.1567   -4.8207 N.am      6 UNK        -0.4434 
     40 CA         24.8697    3.1121   -5.1241 C.3       6 UNK         0.0363 
     41 CB         23.5354    2.5789   -4.5789 C.3       6 UNK        -0.1936 
     42 C          24.7442    3.4422   -6.6212 C.2       6 UNK         0.5081 
     43 O          24.4840    4.5954   -6.9649 O.2       6 UNK        -0.5248 
     44 N          24.9548    2.4393   -7.4845 N.am      7 UNK        -0.4718 
     45 CA         24.9874    2.5882   -8.9427 C.3       7 UNK         0.0273 
     46 CB         24.8429    1.2000   -9.5885 C.3       7 UNK        -0.1935 
     47 C          26.2548    3.2879   -9.4713 C.2       7 UNK         0.5018 
     48 O          26.2738    3.6622  -10.6447 O.2       7 UNK        -0.5186 
     49 N          27.2849    3.4282   -8.6214 N.am      8 UNK        -0.4240 
     50 CA         28.6330    3.9230   -8.9238 C.3       8 UNK         0.0235 
     51 CB         28.6061    5.4178   -9.3087 C.3       8 UNK        -0.2000 
     52 C          29.3615    3.0374   -9.9545 C.2       8 UNK         0.4941 
     53 O          30.0364    3.5514  -10.8499 O.2       8 UNK        -0.5273 
     54 N          29.1959    1.7167   -9.8100 N.am      9 UNK        -0.4262 
     55 CA         29.8424    0.6875  -10.6214 C.3       9 UNK         0.0264 
     56 CB         28.9080   -0.5360  -10.6769 C.3       9 UNK        -0.1955 
     57 C          31.2324    0.3326  -10.0576 C.2       9 UNK         0.5031 
     58 O          31.6984    0.9593   -9.1029 O.2       9 UNK        -0.5390 
     59 N          31.8768   -0.6762  -10.6621 N.am      10 UNK        -0.4204 
     60 CA         33.2042   -1.1768  -10.2809 C.3       10 UNK         0.0237 
     61 CB         33.6824   -2.1920  -11.3325 C.3       10 UNK        -0.1985 
     62 C          33.2781   -1.7911   -8.8680 C.2       10 UNK         0.4970 
     63 O          34.3594   -1.7731   -8.2784 O.2       10 UNK        -0.4914 
     64 N          32.1403   -2.3047   -8.3726 N.am      11 UNK        -0.4285 
     65 CA         31.9113   -2.9005   -7.0425 C.3       11 UNK         0.1007 
     66 C          32.9191   -4.0113   -6.6121 C.2       11 UNK         0.5703 
     67 N          32.9987   -4.3407   -5.3295 N.am      11 UNK        -0.7361 
     68 O          33.5690   -4.6459   -7.4410 O.2       11 UNK        -0.4986 
     69 C69        31.5447   -1.8450   -5.9493 C.3       12 UNK        -0.0947 
     70 S70        32.7813   -0.5361   -5.6369 S.3       12 UNK        -0.2240 
     71 C71        33.5741   -1.0603   -4.0825 C.3       12 UNK         0.0194 
     72 H72        26.3063   -5.5344   -6.9676 H         1 UNK         0.0906 
     73 H73        27.9467   -6.0935   -6.6338 H         1 UNK         0.0906 
     74 H74        26.5632   -7.1100   -6.2179 H         1 UNK         0.0906 
     75 H75        28.8535   -5.4839   -4.6545 H         1 UNK         0.3140 
     76 H76        27.4717   -5.2592   -2.2270 H         1 UNK         0.1085 
     77 H77        29.9736   -5.6509   -2.5269 H         1 UNK         0.0836 
     78 H78        30.1547   -3.9589   -2.9096 H         1 UNK         0.0836 
     79 H79        32.0245   -4.3964   -0.6847 H         1 UNK         0.0731 
     80 H80        31.4831   -3.4609    0.6843 H         1 UNK         0.0731 
     81 H81        32.9325   -3.1881   -2.4993 H         1 UNK         0.1312 
     82 H82        32.0895    0.9745   -3.0539 H         1 UNK         0.1406 
     83 H83        30.1011   -1.2278    0.0497 H         1 UNK         0.1631 
     84 H84        30.9194    1.9154   -0.4843 H         1 UNK         0.0717 
     85 H85        29.4227    1.0201   -0.3706 H         1 UNK         0.0717 
     86 H86        28.7417    0.0303   -2.9480 H         1 UNK         0.0934 
     87 H87        27.4268    1.1247   -2.6327 H         1 UNK         0.0934 
     88 H88        29.1836    1.4502   -5.1222 H         1 UNK         0.0739 
     89 H89        27.6167   -0.8301   -4.7174 H         1 UNK         0.3093 
     90 H90        26.5920   -1.4227   -8.0783 H         1 UNK         0.0818 
     91 H91        27.6779   -3.5759   -7.6344 H         1 UNK         0.0819 
     92 H92        28.9153   -2.3530   -7.8280 H         1 UNK         0.0819 
     93 H93        28.5112   -2.9278   -6.2200 H         1 UNK         0.0819 
     94 H94        26.1562   -2.7437   -5.5394 H         1 UNK         0.3041 
     95 H95        23.1050   -1.0569   -4.7666 H         1 UNK         0.0784 
     96 H96        22.4668   -2.8780   -6.3264 H         1 UNK         0.0793 
     97 H97        23.6984   -3.9332   -5.6517 H         1 UNK         0.0793 
     98 H98        22.3322   -3.4209   -4.6620 H         1 UNK         0.0793 
     99 H99        24.6585   -3.1131   -3.4664 H         1 UNK         0.3024 
    100 H100       26.6814   -0.9077   -1.5428 H         1 UNK         0.1171 
    101 H101       24.5070   -0.7757   -0.3132 H         1 UNK         0.0786 
    102 H102       25.5851   -1.9550    0.4127 H         1 UNK         0.0786 
    103 H103       24.2350   -2.4907   -0.5893 H         1 UNK         0.0786 
    104 H104       26.3595   -3.6716   -1.2509 H         1 UNK         0.2977 
    105 H105       25.6504    1.2887   -4.3714 H         1 UNK         0.3127 
    106 H106       25.1040    4.0421   -4.6021 H         1 UNK         0.0770 
    107 H107       23.2672    1.6253   -5.0356 H         1 UNK         0.0814 
    108 H108       22.7227    3.2785   -4.7786 H         1 UNK         0.0814 
    109 H109       23.5787    2.4315   -3.4996 H         1 UNK         0.0814 
    110 H110       25.0862    1.5000   -7.1208 H         1 UNK         0.2983 
    111 H111       24.1324    3.1973   -9.2442 H         1 UNK         0.0947 
    112 H112       24.8225    1.2723  -10.6767 H         1 UNK         0.0806 
    113 H113       23.9183    0.7122   -9.2797 H         1 UNK         0.0806 
    114 H114       25.6733    0.5459   -9.3207 H         1 UNK         0.0806 
    115 H115       27.1627    3.0724   -7.6801 H         1 UNK         0.3000 
    116 H116       29.2002    3.8324   -7.9960 H         1 UNK         0.0850 
    117 H117       29.6180    5.8140   -9.4011 H         1 UNK         0.0810 
    118 H118       28.0936    6.0118   -8.5520 H         1 UNK         0.0810 
    119 H119       28.1052    5.5834  -10.2628 H         1 UNK         0.0810 
    120 H120       28.6789    1.3825   -8.9971 H         1 UNK         0.3040 
    121 H121       29.9801    1.0644  -11.6371 H         1 UNK         0.0766 
    122 H122       27.9157   -0.2557  -11.0314 H         1 UNK         0.0812 
    123 H123       28.7884   -0.9931   -9.6960 H         1 UNK         0.0812 
    124 H124       29.2809   -1.3025  -11.3564 H         1 UNK         0.0812 
    125 H125       31.4372   -1.1262  -11.4524 H         1 UNK         0.3205 
    126 H126       33.8890   -0.3261  -10.2950 H         1 UNK         0.0754 
    127 H127       34.6809   -2.5609  -11.0927 H         1 UNK         0.0769 
    128 H128       33.7362   -1.7428  -12.3245 H         1 UNK         0.0769 
    129 H129       33.0213   -3.0578  -11.3889 H         1 UNK         0.0769 
    130 H130       31.3344   -2.2875   -8.9771 H         1 UNK         0.2981 
    131 H131       31.0009   -3.4806   -7.1926 H         1 UNK         0.0541 
    132 H132       33.6233   -5.0826   -5.0552 H         1 UNK         0.3459 
    133 H133       32.4494   -3.8591   -4.6388 H         1 UNK         0.3459 
    134 H134       30.6418   -1.3225   -6.2669 H         1 UNK         0.0612 
    135 H135       31.2612   -2.3251   -5.0126 H         1 UNK         0.0612 
    136 H136       34.0579   -2.0253   -4.2345 H         1 UNK         0.0624 
    137 H137       34.3718   -0.3551   -3.8464 H         1 UNK         0.0624 
@<TRIPOS>BOND
     1    1    2 1    
     2    1   72 1    
     3    1   73 1    
     4    1   74 1    
     5    2    3 2    
     6    2    4 am   BACKBONE|DICT|INTERRES
     7    4    5 1    
     8    4   75 1    
     9    5    6 1    
    10    5   35 1    
    11    5   76 1    
    12    6    7 1    
    13    6   77 1    
    14    6   78 1    
    15    7    8 1    
    16    8    9 1    
    17    8   79 1    
    18    8   80 1    
    19    9   10 ar   
    20    9   14 ar   
    21   10   11 ar   
    22   10   81 1    
    23   11   12 ar   
    24   11   71 1    
    25   12   13 ar   
    26   12   82 1    
    27   13   14 ar   
    28   13   15 1    
    29   14   83 1    
    30   15   16 1    
    31   15   84 1    
    32   15   85 1    
    33   16   17 1    
    34   17   18 1    
    35   17   86 1    
    36   17   87 1    
    37   18   19 1    
    38   18   37 1    
    39   18   88 1    
    40   19   20 am   BACKBONE|DICT|INTERRES
    41   19   89 1    
    42   20   21 2    
    43   20   22 1    
    44   22   23 1    
    45   22   24 1    
    46   22   90 1    
    47   23   91 1    
    48   23   92 1    
    49   23   93 1    
    50   24   25 am   BACKBONE|DICT|INTERRES
    51   24   94 1    
    52   25   26 2    
    53   25   27 1    
    54   27   28 1    
    55   27   29 1    
    56   27   95 1    
    57   28   96 1    
    58   28   97 1    
    59   28   98 1    
    60   29   30 am   BACKBONE|DICT|INTERRES
    61   29   99 1    
    62   30   31 2    
    63   30   32 1    
    64   32   33 1    
    65   32   34 1    
    66   32  100 1    
    67   33  101 1    
    68   33  102 1    
    69   33  103 1    
    70   34   35 am   BACKBONE|DICT|INTERRES
    71   34  104 1    
    72   35   36 2    
    73   37   38 2    
    74   37   39 am   BACKBONE|DICT|INTERRES
    75   39   40 1    
    76   39  105 1    
    77   40   41 1    
    78   40   42 1    
    79   40  106 1    
    80   41  107 1    
    81   41  108 1    
    82   41  109 1    
    83   42   43 2    
    84   42   44 am   BACKBONE|DICT|INTERRES
    85   44   45 1    
    86   44  110 1    
    87   45   46 1    
    88   45   47 1    
    89   45  111 1    
    90   46  112 1    
    91   46  113 1    
    92   46  114 1    
    93   47   48 2    
    94   47   49 am   BACKBONE|DICT|INTERRES
    95   49   50 1    
    96   49  115 1    
    97   50   51 1    
    98   50   52 1    
    99   50  116 1    
   100   51  117 1    
   101   51  118 1    
   102   51  119 1    
   103   52   53 2    
   104   52   54 am   BACKBONE|DICT|INTERRES
   105   54   55 1    
   106   54  120 1    
   107   55   56 1    
   108   55   57 1    
   109   55  121 1    
   110   56  122 1    
   111   56  123 1    
   112   56  124 1    
   113   57   58 2    
   114   57   59 am   BACKBONE|DICT|INTERRES
   115   59   60 1    
   116   59  125 1    
   117   60   61 1    
   118   60   62 1    
   119   60  126 1    
   120   61  127 1    
   121   61  128 1    
   122   61  129 1    
   123   62   63 2    
   124   62   64 am   BACKBONE|DICT|INTERRES
   125   64   65 1    
   126   64  130 1    
   127   65   66 1    
   128   65   69 1    
   129   65  131 1    
   130   66   67 am   BACKBONE|DICT|INTERRES
   131   66   68 2    
   132   67  132 1    
   133   67  133 1    
   134   69   70 1    
   135   69  134 1    
   136   69  135 1    
   137   70   71 1    
   138   71  136 1    
   139   71  137 1    
@<TRIPOS>SUBSTRUCTURE
     1 UNK         1 GROUP             0       ****    0 ROOT    
