@<TRIPOS>MOLECULE
3R137
137   139    1
SMALL
USER_CHARGES


@<TRIPOS>ATOM
      1 CA         26.8165   -0.9320  -10.4734 C.3       0 UNK        -0.2020 
      2 C          26.2447   -2.1345   -9.7436 C.2       0 UNK         0.4855 
      3 O          25.4213   -2.8555  -10.3072 O.2       0 UNK        -0.5197 
      4 N          26.6714   -2.3578   -8.4940 N.am      1 UNK        -0.4892 
      5 CA         26.1972   -3.4595   -7.6454 C.3       1 UNK         0.0835 
      6 C6         27.2382   -3.8657   -6.5740 C.3       12 UNK        -0.0855 
      7 S7         27.8403   -2.4807   -5.5458 S.3       12 UNK        -0.2931 
      8 C8         29.5763   -2.4025   -6.0918 C.3       12 UNK         0.0378 
      9 C9         30.3879   -1.4458   -5.2353 C.ar      12 UNK        -0.0802 
     10 C10        30.9466   -0.2905   -5.7879 C.ar      12 UNK        -0.0944 
     11 C11        31.7013    0.5831   -4.9962 C.ar      12 UNK        -0.0787 
     12 C12        31.8496    0.3174   -3.6321 C.ar      12 UNK        -0.0862 
     13 C13        31.2712   -0.8214   -3.0649 C.ar      12 UNK        -0.0733 
     14 C14        30.5778   -1.7194   -3.8794 C.ar      12 UNK        -0.0832 
     15 C15        31.3526   -1.0572   -1.5640 C.3       12 UNK         0.0240 
     16 S16        29.7002   -1.1818   -0.7977 S.3       12 UNK        -0.2522 
     17 C17        28.8641    0.3373   -1.3883 C.3       12 UNK        -0.0967 
     18 CA         27.7480    0.0629   -2.4465 C.3       5 UNK         0.0660 
     19 N          26.7724   -0.9456   -2.0090 N.am      5 UNK        -0.4015 
     20 C          25.9901   -0.8685   -0.9241 C.2       4 UNK         0.4946 
     21 O          25.8895    0.1284   -0.2057 O.2       4 UNK        -0.5353 
     22 CA         25.1436   -2.1061   -0.6120 C.3       4 UNK         0.0277 
     23 CB         24.9792   -2.3412    0.9011 C.3       4 UNK        -0.1981 
     24 N          23.8405   -1.8789   -1.2159 N.am      4 UNK        -0.4209 
     25 C          23.1992   -2.7325   -2.0187 C.2       3 UNK         0.4942 
     26 O          23.5556   -3.8950   -2.2188 O.2       3 UNK        -0.5208 
     27 CA         21.9599   -2.1899   -2.7570 C.3       3 UNK         0.0250 
     28 CB         21.4364   -0.8412   -2.2130 C.3       3 UNK        -0.1990 
     29 N          22.1804   -2.0897   -4.2049 N.am      3 UNK        -0.4232 
     30 C          23.2133   -1.5140   -4.8410 C.2       2 UNK         0.4993 
     31 O          24.1769   -0.9742   -4.2866 O.2       2 UNK        -0.5286 
     32 CA         23.1276   -1.4948   -6.3733 C.3       2 UNK         0.0209 
     33 CB         22.7697   -0.0870   -6.8745 C.3       2 UNK        -0.1931 
     34 N          24.3943   -1.9165   -6.9667 N.am      2 UNK        -0.4546 
     35 C          24.8097   -3.1893   -7.0253 C.2       1 UNK         0.5154 
     36 O          24.1327   -4.1412   -6.6316 O.2       1 UNK        -0.5181 
     37 C          27.0869    1.3691   -2.9523 C.2       5 UNK         0.5014 
     38 O          27.7053    2.4315   -2.8538 O.2       5 UNK        -0.5248 
     39 N          25.8511    1.2978   -3.4758 N.am      6 UNK        -0.4434 
     40 CA         25.0803    2.4776   -3.8900 C.3       6 UNK         0.0363 
     41 CB         23.5855    2.2422   -3.6178 C.3       6 UNK        -0.1936 
     42 C          25.3145    2.8990   -5.3522 C.2       6 UNK         0.5081 
     43 O          24.8454    3.9719   -5.7353 O.2       6 UNK        -0.5248 
     44 N          26.0206    2.0842   -6.1461 N.am      7 UNK        -0.4718 
     45 CA         26.3970    2.3935   -7.5256 C.3       7 UNK         0.0273 
     46 CB         25.3926    1.7640   -8.5046 C.3       7 UNK        -0.1935 
     47 C          27.8147    1.8775   -7.7806 C.2       7 UNK         0.5018 
     48 O          28.1434    0.7755   -7.3353 O.2       7 UNK        -0.5186 
     49 N          28.6164    2.6799   -8.4923 N.am      8 UNK        -0.4240 
     50 CA         30.0181    2.3982   -8.8009 C.3       8 UNK         0.0235 
     51 CB         30.6990    3.6823   -9.3008 C.3       8 UNK        -0.2000 
     52 C          30.1864    1.2633   -9.8207 C.2       8 UNK         0.4941 
     53 O          29.3864    1.1451  -10.7509 O.2       8 UNK        -0.5273 
     54 N          31.2532    0.4819   -9.6388 N.am      9 UNK        -0.4262 
     55 CA         31.6502   -0.6398  -10.4826 C.3       9 UNK         0.0264 
     56 CB         30.8588   -1.9069  -10.0865 C.3       9 UNK        -0.1955 
     57 C          33.1762   -0.7682  -10.3620 C.2       9 UNK         0.5031 
     58 O          33.8696    0.2414  -10.5015 O.2       9 UNK        -0.5390 
     59 N          33.6807   -1.9757  -10.0720 N.am      10 UNK        -0.4204 
     60 CA         35.0894   -2.2208   -9.7408 C.3       10 UNK         0.0237 
     61 CB         35.3667   -3.7330   -9.7654 C.3       10 UNK        -0.1985 
     62 C          35.4973   -1.6170   -8.3820 C.2       10 UNK         0.4970 
     63 O          36.6462   -1.1983   -8.2334 O.2       10 UNK        -0.4914 
     64 N          34.5453   -1.5737   -7.4378 N.am      11 UNK        -0.4285 
     65 CA         34.6775   -1.0224   -6.0792 C.3       11 UNK         0.1007 
     66 C          35.7335   -1.7726   -5.2087 C.2       11 UNK         0.5703 
     67 N          36.2565   -1.1594   -4.1544 N.am      11 UNK        -0.7361 
     68 O          36.0458   -2.9388   -5.4456 O.2       11 UNK        -0.4986 
     69 C69        34.8249    0.5313   -6.0709 C.3       12 UNK        -0.0947 
     70 S70        33.4858    1.3942   -6.9676 S.3       12 UNK        -0.2240 
     71 C71        32.3515    1.8181   -5.6050 C.3       12 UNK         0.0194 
     72 H72        27.4376   -1.2550  -11.3083 H         1 UNK         0.0906 
     73 H73        26.0137   -0.3090  -10.8663 H         1 UNK         0.0906 
     74 H74        27.4282   -0.3196   -9.8137 H         1 UNK         0.0906 
     75 H75        27.3335   -1.7275   -8.0583 H         1 UNK         0.3140 
     76 H76        26.0582   -4.3328   -8.2874 H         1 UNK         0.1085 
     77 H77        28.0850   -4.3417   -7.0704 H         1 UNK         0.0836 
     78 H78        26.8323   -4.6336   -5.9122 H         1 UNK         0.0836 
     79 H79        29.6022   -2.1027   -7.1401 H         1 UNK         0.0731 
     80 H80        30.0272   -3.3942   -6.0341 H         1 UNK         0.0731 
     81 H81        30.8015   -0.0774   -6.8368 H         1 UNK         0.1312 
     82 H82        32.4021    1.0063   -3.0079 H         1 UNK         0.1406 
     83 H83        30.1320   -2.6041   -3.4447 H         1 UNK         0.1631 
     84 H84        31.9068   -0.2561   -1.0725 H         1 UNK         0.0717 
     85 H85        31.9048   -1.9785   -1.3742 H         1 UNK         0.0717 
     86 H86        28.4461    0.8478   -0.5191 H         1 UNK         0.0934 
     87 H87        29.6141    1.0201   -1.7909 H         1 UNK         0.0934 
     88 H88        28.2299   -0.3602   -3.3273 H         1 UNK         0.0739 
     89 H89        26.7337   -1.7815   -2.5755 H         1 UNK         0.3093 
     90 H90        25.6321   -2.9809   -1.0477 H         1 UNK         0.0818 
     91 H91        24.4706   -1.5098    1.3908 H         1 UNK         0.0819 
     92 H92        24.4039   -3.2458    1.0983 H         1 UNK         0.0819 
     93 H93        25.9503   -2.4609    1.3831 H         1 UNK         0.0819 
     94 H94        23.4912   -0.9329   -1.1470 H         1 UNK         0.3041 
     95 H95        21.1729   -2.9314   -2.6107 H         1 UNK         0.0784 
     96 H96        21.2251   -0.8987   -1.1442 H         1 UNK         0.0793 
     97 H97        22.1453   -0.0298   -2.3730 H         1 UNK         0.0793 
     98 H98        20.5048   -0.5595   -2.7042 H         1 UNK         0.0793 
     99 H99        21.4671   -2.5279   -4.7708 H         1 UNK         0.3024 
    100 H100       22.3463   -2.1840   -6.7026 H         1 UNK         0.1171 
    101 H101       22.7052   -0.0551   -7.9622 H         1 UNK         0.0786 
    102 H102       21.8029    0.2319   -6.4827 H         1 UNK         0.0786 
    103 H103       23.5058    0.6514   -6.5580 H         1 UNK         0.0786 
    104 H104       25.0317   -1.1938   -7.2629 H         1 UNK         0.2977 
    105 H105       25.3937    0.3950   -3.5891 H         1 UNK         0.3127 
    106 H106       25.3796    3.3282   -3.2736 H         1 UNK         0.0770 
    107 H107       23.1777    1.4425   -4.2335 H         1 UNK         0.0814 
    108 H108       23.0047    3.1399   -3.8333 H         1 UNK         0.0814 
    109 H109       23.4114    1.9919   -2.5717 H         1 UNK         0.0814 
    110 H110       26.4322    1.2439   -5.7603 H         1 UNK         0.2983 
    111 H111       26.3983    3.4761   -7.6729 H         1 UNK         0.0947 
    112 H112       25.6767    1.9647   -9.5384 H         1 UNK         0.0806 
    113 H113       24.3923    2.1722   -8.3605 H         1 UNK         0.0806 
    114 H114       25.3364    0.6827   -8.3840 H         1 UNK         0.0806 
    115 H115       28.2420    3.5410   -8.8629 H         1 UNK         0.3000 
    116 H116       30.4975    2.0928   -7.8722 H         1 UNK         0.0850 
    117 H117       31.7574    3.5099   -9.5023 H         1 UNK         0.0810 
    118 H118       30.6391    4.4792   -8.5593 H         1 UNK         0.0810 
    119 H119       30.2465    4.0453  -10.2246 H         1 UNK         0.0810 
    120 H120       31.9222    0.7262   -8.9188 H         1 UNK         0.3040 
    121 H121       31.4332   -0.3988  -11.5254 H         1 UNK         0.0766 
    122 H122       31.0878   -2.7424  -10.7490 H         1 UNK         0.0812 
    123 H123       29.7847   -1.7367  -10.1594 H         1 UNK         0.0812 
    124 H124       31.0703   -2.2173   -9.0630 H         1 UNK         0.0812 
    125 H125       33.0493   -2.7608  -10.0030 H         1 UNK         0.3205 
    126 H126       35.7060   -1.7491  -10.5092 H         1 UNK         0.0754 
    127 H127       34.7694   -4.2677   -9.0257 H         1 UNK         0.0769 
    128 H128       36.4155   -3.9393   -9.5466 H         1 UNK         0.0769 
    129 H129       35.1521   -4.1605  -10.7452 H         1 UNK         0.0769 
    130 H130       33.6470   -1.9766   -7.6515 H         1 UNK         0.2981 
    131 H131       33.7319   -1.2600   -5.5934 H         1 UNK         0.0541 
    132 H132       36.0041   -0.2122   -3.9228 H         1 UNK         0.3459 
    133 H133       36.9218   -1.6552   -3.5821 H         1 UNK         0.3459 
    134 H134       35.7746    0.8228   -6.5219 H         1 UNK         0.0612 
    135 H135       34.8455    0.9157   -5.0506 H         1 UNK         0.0612 
    136 H136       31.5751    2.4907   -5.9672 H         1 UNK         0.0624 
    137 H137       32.9042    2.3817   -4.8517 H         1 UNK         0.0624 
@<TRIPOS>BOND
     1    1    2 1    
     2    1   72 1    
     3    1   73 1    
     4    1   74 1    
     5    2    3 2    
     6    2    4 am   BACKBONE|DICT|INTERRES
     7    4    5 1    
     8    4   75 1    
     9    5    6 1    
    10    5   35 1    
    11    5   76 1    
    12    6    7 1    
    13    6   77 1    
    14    6   78 1    
    15    7    8 1    
    16    8    9 1    
    17    8   79 1    
    18    8   80 1    
    19    9   10 ar   
    20    9   14 ar   
    21   10   11 ar   
    22   10   81 1    
    23   11   12 ar   
    24   11   71 1    
    25   12   13 ar   
    26   12   82 1    
    27   13   14 ar   
    28   13   15 1    
    29   14   83 1    
    30   15   16 1    
    31   15   84 1    
    32   15   85 1    
    33   16   17 1    
    34   17   18 1    
    35   17   86 1    
    36   17   87 1    
    37   18   19 1    
    38   18   37 1    
    39   18   88 1    
    40   19   20 am   BACKBONE|DICT|INTERRES
    41   19   89 1    
    42   20   21 2    
    43   20   22 1    
    44   22   23 1    
    45   22   24 1    
    46   22   90 1    
    47   23   91 1    
    48   23   92 1    
    49   23   93 1    
    50   24   25 am   BACKBONE|DICT|INTERRES
    51   24   94 1    
    52   25   26 2    
    53   25   27 1    
    54   27   28 1    
    55   27   29 1    
    56   27   95 1    
    57   28   96 1    
    58   28   97 1    
    59   28   98 1    
    60   29   30 am   BACKBONE|DICT|INTERRES
    61   29   99 1    
    62   30   31 2    
    63   30   32 1    
    64   32   33 1    
    65   32   34 1    
    66   32  100 1    
    67   33  101 1    
    68   33  102 1    
    69   33  103 1    
    70   34   35 am   BACKBONE|DICT|INTERRES
    71   34  104 1    
    72   35   36 2    
    73   37   38 2    
    74   37   39 am   BACKBONE|DICT|INTERRES
    75   39   40 1    
    76   39  105 1    
    77   40   41 1    
    78   40   42 1    
    79   40  106 1    
    80   41  107 1    
    81   41  108 1    
    82   41  109 1    
    83   42   43 2    
    84   42   44 am   BACKBONE|DICT|INTERRES
    85   44   45 1    
    86   44  110 1    
    87   45   46 1    
    88   45   47 1    
    89   45  111 1    
    90   46  112 1    
    91   46  113 1    
    92   46  114 1    
    93   47   48 2    
    94   47   49 am   BACKBONE|DICT|INTERRES
    95   49   50 1    
    96   49  115 1    
    97   50   51 1    
    98   50   52 1    
    99   50  116 1    
   100   51  117 1    
   101   51  118 1    
   102   51  119 1    
   103   52   53 2    
   104   52   54 am   BACKBONE|DICT|INTERRES
   105   54   55 1    
   106   54  120 1    
   107   55   56 1    
   108   55   57 1    
   109   55  121 1    
   110   56  122 1    
   111   56  123 1    
   112   56  124 1    
   113   57   58 2    
   114   57   59 am   BACKBONE|DICT|INTERRES
   115   59   60 1    
   116   59  125 1    
   117   60   61 1    
   118   60   62 1    
   119   60  126 1    
   120   61  127 1    
   121   61  128 1    
   122   61  129 1    
   123   62   63 2    
   124   62   64 am   BACKBONE|DICT|INTERRES
   125   64   65 1    
   126   64  130 1    
   127   65   66 1    
   128   65   69 1    
   129   65  131 1    
   130   66   67 am   BACKBONE|DICT|INTERRES
   131   66   68 2    
   132   67  132 1    
   133   67  133 1    
   134   69   70 1    
   135   69  134 1    
   136   69  135 1    
   137   70   71 1    
   138   71  136 1    
   139   71  137 1    
@<TRIPOS>SUBSTRUCTURE
     1 UNK         1 GROUP             0       ****    0 ROOT    
