@<TRIPOS>MOLECULE
3R137
137   139    1
SMALL
USER_CHARGES


@<TRIPOS>ATOM
      1 CA         23.3495   -3.6023   -1.1500 C.3       0 UNK        -0.2020 
      2 C          24.5136   -2.6273   -1.0691 C.2       0 UNK         0.4855 
      3 O          24.3589   -1.5402   -0.5114 O.2       0 UNK        -0.5197 
      4 N          25.6742   -3.0043   -1.6250 N.am      1 UNK        -0.4892 
      5 CA         26.9112   -2.2129   -1.6695 C.3       1 UNK         0.0835 
      6 C6         28.0555   -2.9645   -2.3953 C.3       12 UNK        -0.0855 
      7 S7         28.4088   -4.6065   -1.6850 S.3       12 UNK        -0.2931 
      8 C8         30.2221   -4.7083   -1.8774 C.3       12 UNK         0.0378 
      9 C9         30.6944   -4.5222   -3.3179 C.ar      12 UNK        -0.0802 
     10 C10        31.7500   -3.6487   -3.5974 C.ar      12 UNK        -0.0944 
     11 C11        32.2067   -3.4771   -4.9079 C.ar      12 UNK        -0.0787 
     12 C12        31.5863   -4.1709   -5.9509 C.ar      12 UNK        -0.0862 
     13 C13        30.5287   -5.0466   -5.6866 C.ar      12 UNK        -0.0733 
     14 C14        30.1004   -5.2312   -4.3676 C.ar      12 UNK        -0.0832 
     15 C15        29.8519   -5.8013   -6.8233 C.3       12 UNK         0.0240 
     16 S16        28.7951   -4.7233   -7.8446 S.3       12 UNK        -0.2522 
     17 C17        27.5317   -4.1766   -6.6429 C.3       12 UNK        -0.0967 
     18 CA         26.8333   -2.8482   -7.0291 C.3       5 UNK         0.0660 
     19 N          25.6379   -2.6358   -6.2059 N.am      5 UNK        -0.4015 
     20 C          24.8125   -1.5800   -6.2257 C.2       4 UNK         0.4946 
     21 O          25.0239   -0.5503   -6.8657 O.2       4 UNK        -0.5353 
     22 CA         23.5165   -1.6950   -5.4096 C.3       4 UNK         0.0277 
     23 CB         23.2363   -3.1024   -4.8371 C.3       4 UNK        -0.1981 
     24 N          23.5378   -0.7177   -4.3256 N.am      4 UNK        -0.4209 
     25 C          22.4617   -0.0624   -3.8672 C.2       3 UNK         0.4942 
     26 O          21.3353   -0.1958   -4.3490 O.2       3 UNK        -0.5208 
     27 CA         22.6350    0.8801   -2.6591 C.3       3 UNK         0.0250 
     28 CB         21.7058    0.4658   -1.5041 C.3       3 UNK        -0.1990 
     29 N          24.0113    0.9240   -2.1624 N.am      3 UNK        -0.4232 
     30 C          24.9480    1.7797   -2.5945 C.2       2 UNK         0.4993 
     31 O          24.7290    2.6788   -3.4059 O.2       2 UNK        -0.5286 
     32 CA         26.3780    1.5980   -2.0512 C.3       2 UNK         0.0209 
     33 CB         26.6512    2.5937   -0.9124 C.3       2 UNK        -0.1931 
     34 N          26.6799    0.2383   -1.5844 N.am      2 UNK        -0.4546 
     35 C          26.6628   -0.8570   -2.3559 C.2       1 UNK         0.5154 
     36 O          26.4195   -0.8361   -3.5641 O.2       1 UNK        -0.5181 
     37 C          27.8215   -1.6615   -7.0595 C.2       5 UNK         0.5014 
     38 O          28.2734   -1.2954   -8.1437 O.2       5 UNK        -0.5248 
     39 N          28.1150   -1.0467   -5.9040 N.am      6 UNK        -0.4434 
     40 CA         29.0997    0.0376   -5.8029 C.3       6 UNK         0.0363 
     41 CB         29.5577    0.2129   -4.3476 C.3       6 UNK        -0.1936 
     42 C          28.6325    1.3707   -6.4158 C.2       6 UNK         0.5081 
     43 O          29.4596    2.2622   -6.6007 O.2       6 UNK        -0.5248 
     44 N          27.3422    1.4893   -6.7611 N.am      7 UNK        -0.4718 
     45 CA         26.8134    2.6074   -7.5456 C.3       7 UNK         0.0273 
     46 CB         25.3050    2.7466   -7.2811 C.3       7 UNK        -0.1935 
     47 C          27.0921    2.4599   -9.0558 C.2       7 UNK         0.5018 
     48 O          26.8814    3.4261   -9.7904 O.2       7 UNK        -0.5186 
     49 N          27.5434    1.2780   -9.5026 N.am      8 UNK        -0.4240 
     50 CA         27.8119    0.9522  -10.9037 C.3       8 UNK         0.0235 
     51 CB         26.5706    0.2712  -11.5134 C.3       8 UNK        -0.2000 
     52 C          29.0892    0.1039  -11.0387 C.2       8 UNK         0.4941 
     53 O          29.1393   -0.7974  -11.8786 O.2       8 UNK        -0.5273 
     54 N          30.1042    0.4069  -10.2215 N.am      9 UNK        -0.4262 
     55 CA         31.4111   -0.2460  -10.2134 C.3       9 UNK         0.0264 
     56 CB         31.4081   -1.4099   -9.2044 C.3       9 UNK        -0.1955 
     57 C          32.4789    0.7930   -9.8577 C.2       9 UNK         0.5031 
     58 O          32.1464    1.8643   -9.3424 O.2       9 UNK        -0.5390 
     59 N          33.7480    0.4476  -10.1151 N.am      10 UNK        -0.4204 
     60 CA         34.9248    1.2999   -9.8955 C.3       10 UNK         0.0237 
     61 CB         36.1753    0.5796  -10.4270 C.3       10 UNK        -0.1985 
     62 C          35.1415    1.7436   -8.4359 C.2       10 UNK         0.4970 
     63 O          35.7756    2.7758   -8.2132 O.2       10 UNK        -0.4914 
     64 N          34.6082    0.9745   -7.4788 N.am      11 UNK        -0.4285 
     65 CA         34.5560    1.3256   -6.0537 C.3       11 UNK         0.1007 
     66 C          33.5358    2.4475   -5.6908 C.2       11 UNK         0.5703 
     67 N          32.6570    2.8732   -6.5908 N.am      11 UNK        -0.7361 
     68 O          33.5544    2.9498   -4.5694 O.2       11 UNK        -0.4986 
     69 C69        34.3837    0.0641   -5.1684 C.3       12 UNK        -0.0947 
     70 S70        32.8333   -0.8514   -5.4746 S.3       12 UNK        -0.2240 
     71 C71        33.3842   -2.5564   -5.1854 C.3       12 UNK         0.0194 
     72 H72        22.5162   -3.1458   -1.6836 H         1 UNK         0.0906 
     73 H73        23.6212   -4.5226   -1.6666 H         1 UNK         0.0906 
     74 H74        23.0099   -3.8631   -0.1481 H         1 UNK         0.0906 
     75 H75        25.7471   -3.9208   -2.0429 H         1 UNK         0.3140 
     76 H76        27.2216   -2.0329   -0.6381 H         1 UNK         0.1085 
     77 H77        27.8216   -3.1078   -3.4514 H         1 UNK         0.0836 
     78 H78        28.9682   -2.3663   -2.3651 H         1 UNK         0.0836 
     79 H79        30.6809   -3.9663   -1.2218 H         1 UNK         0.0731 
     80 H80        30.5590   -5.6828   -1.5216 H         1 UNK         0.0731 
     81 H81        32.2265   -3.1047   -2.7933 H         1 UNK         0.1312 
     82 H82        31.9249   -4.0304   -6.9685 H         1 UNK         0.1406 
     83 H83        29.2896   -5.9153   -4.1564 H         1 UNK         0.1631 
     84 H84        29.2518   -6.6274   -6.4387 H         1 UNK         0.0717 
     85 H85        30.6150   -6.2506   -7.4603 H         1 UNK         0.0717 
     86 H86        26.7969   -4.9799   -6.5691 H         1 UNK         0.0934 
     87 H87        27.9738   -4.0840   -5.6516 H         1 UNK         0.0934 
     88 H88        26.4607   -2.9597   -8.0496 H         1 UNK         0.0739 
     89 H89        25.3654   -3.4149   -5.6265 H         1 UNK         0.3093 
     90 H90        22.7112   -1.4477   -6.1047 H         1 UNK         0.0818 
     91 H91        22.2709   -3.1304   -4.3314 H         1 UNK         0.0819 
     92 H92        23.1963   -3.8529   -5.6278 H         1 UNK         0.0819 
     93 H93        23.9923   -3.4098   -4.1146 H         1 UNK         0.0819 
     94 H94        24.4537   -0.5228   -3.9327 H         1 UNK         0.3041 
     95 H95        22.3350    1.8778   -2.9865 H         1 UNK         0.0784 
     96 H96        20.6594    0.5005   -1.8102 H         1 UNK         0.0793 
     97 H97        21.9107   -0.5495   -1.1637 H         1 UNK         0.0793 
     98 H98        21.8129    1.1339   -0.6494 H         1 UNK         0.0793 
     99 H99        24.2728    0.1979   -1.5003 H         1 UNK         0.3024 
    100 H100       27.0524    1.8318   -2.8766 H         1 UNK         0.1171 
    101 H101       26.4588    3.6182   -1.2345 H         1 UNK         0.0786 
    102 H102       27.6905    2.5493   -0.5864 H         1 UNK         0.0786 
    103 H103       26.0170    2.4001   -0.0463 H         1 UNK         0.0786 
    104 H104       26.8462    0.1316   -0.5935 H         1 UNK         0.2977 
    105 H105       27.5899   -1.2733   -5.0647 H         1 UNK         0.3127 
    106 H106       29.9774   -0.2677   -6.3746 H         1 UNK         0.0770 
    107 H107       28.7577    0.5791   -3.7107 H         1 UNK         0.0814 
    108 H108       30.3731    0.9352   -4.2864 H         1 UNK         0.0814 
    109 H109       29.9296   -0.7240   -3.9333 H         1 UNK         0.0814 
    110 H110       26.7105    0.7102   -6.6023 H         1 UNK         0.2983 
    111 H111       27.2967    3.5293   -7.2144 H         1 UNK         0.0947 
    112 H112       24.9103    3.6481   -7.7513 H         1 UNK         0.0806 
    113 H113       25.0910    2.8169   -6.2143 H         1 UNK         0.0806 
    114 H114       24.7436    1.9026   -7.6820 H         1 UNK         0.0806 
    115 H115       27.7191    0.5260   -8.8407 H         1 UNK         0.3000 
    116 H116       28.0061    1.8695  -11.4634 H         1 UNK         0.0850 
    117 H117       26.7177    0.0570  -12.5727 H         1 UNK         0.0810 
    118 H118       25.6893    0.9077  -11.4335 H         1 UNK         0.0810 
    119 H119       26.3494   -0.6728  -11.0136 H         1 UNK         0.0810 
    120 H120       30.0315    1.2048   -9.6019 H         1 UNK         0.3040 
    121 H121       31.6355   -0.6292  -11.2112 H         1 UNK         0.0766 
    122 H122       32.3621   -1.9377   -9.1979 H         1 UNK         0.0812 
    123 H123       30.6368   -2.1416   -9.4471 H         1 UNK         0.0812 
    124 H124       31.2206   -1.0608   -8.1893 H         1 UNK         0.0812 
    125 H125       33.9243   -0.4562  -10.5310 H         1 UNK         0.3205 
    126 H126       34.7791    2.2083  -10.4838 H         1 UNK         0.0754 
    127 H127       37.0650    1.1996  -10.3060 H         1 UNK         0.0769 
    128 H128       36.0839    0.3549  -11.4900 H         1 UNK         0.0769 
    129 H129       36.3570   -0.3571   -9.8984 H         1 UNK         0.0769 
    130 H130       34.0912    0.1514   -7.7468 H         1 UNK         0.2981 
    131 H131       35.5321    1.7434   -5.8000 H         1 UNK         0.0541 
    132 H132       32.6038    2.4601   -7.5159 H         1 UNK         0.3459 
    133 H133       31.9839    3.5740   -6.3266 H         1 UNK         0.3459 
    134 H134       34.4239    0.3277   -4.1100 H         1 UNK         0.0612 
    135 H135       35.2289   -0.6051   -5.3370 H         1 UNK         0.0612 
    136 H136       34.0716   -2.5789   -4.3382 H         1 UNK         0.0624 
    137 H137       33.9484   -2.9051   -6.0517 H         1 UNK         0.0624 
@<TRIPOS>BOND
     1    1    2 1    
     2    1   72 1    
     3    1   73 1    
     4    1   74 1    
     5    2    3 2    
     6    2    4 am   BACKBONE|DICT|INTERRES
     7    4    5 1    
     8    4   75 1    
     9    5    6 1    
    10    5   35 1    
    11    5   76 1    
    12    6    7 1    
    13    6   77 1    
    14    6   78 1    
    15    7    8 1    
    16    8    9 1    
    17    8   79 1    
    18    8   80 1    
    19    9   10 ar   
    20    9   14 ar   
    21   10   11 ar   
    22   10   81 1    
    23   11   12 ar   
    24   11   71 1    
    25   12   13 ar   
    26   12   82 1    
    27   13   14 ar   
    28   13   15 1    
    29   14   83 1    
    30   15   16 1    
    31   15   84 1    
    32   15   85 1    
    33   16   17 1    
    34   17   18 1    
    35   17   86 1    
    36   17   87 1    
    37   18   19 1    
    38   18   37 1    
    39   18   88 1    
    40   19   20 am   BACKBONE|DICT|INTERRES
    41   19   89 1    
    42   20   21 2    
    43   20   22 1    
    44   22   23 1    
    45   22   24 1    
    46   22   90 1    
    47   23   91 1    
    48   23   92 1    
    49   23   93 1    
    50   24   25 am   BACKBONE|DICT|INTERRES
    51   24   94 1    
    52   25   26 2    
    53   25   27 1    
    54   27   28 1    
    55   27   29 1    
    56   27   95 1    
    57   28   96 1    
    58   28   97 1    
    59   28   98 1    
    60   29   30 am   BACKBONE|DICT|INTERRES
    61   29   99 1    
    62   30   31 2    
    63   30   32 1    
    64   32   33 1    
    65   32   34 1    
    66   32  100 1    
    67   33  101 1    
    68   33  102 1    
    69   33  103 1    
    70   34   35 am   BACKBONE|DICT|INTERRES
    71   34  104 1    
    72   35   36 2    
    73   37   38 2    
    74   37   39 am   BACKBONE|DICT|INTERRES
    75   39   40 1    
    76   39  105 1    
    77   40   41 1    
    78   40   42 1    
    79   40  106 1    
    80   41  107 1    
    81   41  108 1    
    82   41  109 1    
    83   42   43 2    
    84   42   44 am   BACKBONE|DICT|INTERRES
    85   44   45 1    
    86   44  110 1    
    87   45   46 1    
    88   45   47 1    
    89   45  111 1    
    90   46  112 1    
    91   46  113 1    
    92   46  114 1    
    93   47   48 2    
    94   47   49 am   BACKBONE|DICT|INTERRES
    95   49   50 1    
    96   49  115 1    
    97   50   51 1    
    98   50   52 1    
    99   50  116 1    
   100   51  117 1    
   101   51  118 1    
   102   51  119 1    
   103   52   53 2    
   104   52   54 am   BACKBONE|DICT|INTERRES
   105   54   55 1    
   106   54  120 1    
   107   55   56 1    
   108   55   57 1    
   109   55  121 1    
   110   56  122 1    
   111   56  123 1    
   112   56  124 1    
   113   57   58 2    
   114   57   59 am   BACKBONE|DICT|INTERRES
   115   59   60 1    
   116   59  125 1    
   117   60   61 1    
   118   60   62 1    
   119   60  126 1    
   120   61  127 1    
   121   61  128 1    
   122   61  129 1    
   123   62   63 2    
   124   62   64 am   BACKBONE|DICT|INTERRES
   125   64   65 1    
   126   64  130 1    
   127   65   66 1    
   128   65   69 1    
   129   65  131 1    
   130   66   67 am   BACKBONE|DICT|INTERRES
   131   66   68 2    
   132   67  132 1    
   133   67  133 1    
   134   69   70 1    
   135   69  134 1    
   136   69  135 1    
   137   70   71 1    
   138   71  136 1    
   139   71  137 1    
@<TRIPOS>SUBSTRUCTURE
     1 UNK         1 GROUP             0       ****    0 ROOT    
