@<TRIPOS>MOLECULE
3R137
137   139    1
SMALL
USER_CHARGES


@<TRIPOS>ATOM
      1 CA         30.6837   -1.8030    3.1044 C.3       0 UNK        -0.2020 
      2 C          30.5061   -1.5997    1.6071 C.2       0 UNK         0.4855 
      3 O          31.4010   -1.0669    0.9504 O.2       0 UNK        -0.5197 
      4 N          29.3583   -2.0138    1.0647 N.am      1 UNK        -0.4892 
      5 CA         28.9912   -1.9022   -0.3460 C.3       1 UNK         0.0835 
      6 C6         29.7116   -2.9449   -1.2443 C.3       12 UNK        -0.0855 
      7 S7         29.4079   -4.6907   -0.7867 S.3       12 UNK        -0.2931 
      8 C8         30.7736   -5.5324   -1.6543 C.3       12 UNK         0.0378 
      9 C9         30.7997   -5.1963   -3.1394 C.ar      12 UNK        -0.0802 
     10 C10        31.8805   -4.4961   -3.6851 C.ar      12 UNK        -0.0944 
     11 C11        31.8836   -4.1395   -5.0367 C.ar      12 UNK        -0.0787 
     12 C12        30.7981   -4.4890   -5.8444 C.ar      12 UNK        -0.0862 
     13 C13        29.7059   -5.1767   -5.3063 C.ar      12 UNK        -0.0733 
     14 C14        29.7232   -5.5486   -3.9592 C.ar      12 UNK        -0.0832 
     15 C15        28.4847   -5.4731   -6.1658 C.3       12 UNK         0.0240 
     16 S16        27.0377   -4.4924   -5.6426 S.3       12 UNK        -0.2522 
     17 C17        27.6270   -2.7804   -5.8784 C.3       12 UNK        -0.0967 
     18 CA         26.8254   -2.0300   -6.9650 C.3       5 UNK         0.0660 
     19 N          25.4176   -1.8514   -6.6126 N.am      5 UNK        -0.4015 
     20 C          24.4526   -1.5268   -7.4839 C.2       4 UNK         0.4946 
     21 O          24.6276   -1.4195   -8.6979 O.2       4 UNK        -0.5353 
     22 CA         23.0593   -1.2450   -6.8962 C.3       4 UNK         0.0277 
     23 CB         22.2504   -2.5465   -6.7758 C.3       4 UNK        -0.1981 
     24 N          23.1135   -0.5778   -5.5919 N.am      4 UNK        -0.4209 
     25 C          23.5953    0.6580   -5.3932 C.2       3 UNK         0.4942 
     26 O          24.0153    1.3831   -6.2933 O.2       3 UNK        -0.5208 
     27 CA         23.6638    1.1495   -3.9386 C.3       3 UNK         0.0250 
     28 CB         22.3167    1.7507   -3.5070 C.3       3 UNK        -0.1990 
     29 N          24.0696    0.1088   -2.9872 N.am      3 UNK        -0.4232 
     30 C          25.2501   -0.5245   -3.0097 C.2       2 UNK         0.4993 
     31 O          26.1173   -0.3403   -3.8689 O.2       2 UNK        -0.5286 
     32 CA         25.4901   -1.5683   -1.9173 C.3       2 UNK         0.0209 
     33 CB         25.0006   -2.9556   -2.3704 C.3       2 UNK        -0.1931 
     34 N          26.9210   -1.6150   -1.6299 N.am      2 UNK        -0.4546 
     35 C          27.4560   -1.9661   -0.4558 C.2       1 UNK         0.5154 
     36 O          26.7861   -2.3219    0.5203 O.2       1 UNK        -0.5181 
     37 C          27.4710   -0.6723   -7.2862 C.2       5 UNK         0.5014 
     38 O          28.0790   -0.5402   -8.3466 O.2       5 UNK        -0.5248 
     39 N          27.2884    0.3184   -6.3987 N.am      6 UNK        -0.4434 
     40 CA         27.8100    1.6825   -6.5435 C.3       6 UNK         0.0363 
     41 CB         27.4579    2.5019   -5.2928 C.3       6 UNK        -0.1936 
     42 C          27.3261    2.4018   -7.8158 C.2       6 UNK         0.5081 
     43 O          28.0947    3.1532   -8.4154 O.2       6 UNK        -0.5248 
     44 N          26.0756    2.1398   -8.2208 N.am      7 UNK        -0.4718 
     45 CA         25.4897    2.6134   -9.4760 C.3       7 UNK         0.0273 
     46 CB         23.9737    2.3609   -9.4545 C.3       7 UNK        -0.1935 
     47 C          26.1204    1.9761  -10.7280 C.2       7 UNK         0.5018 
     48 O          26.1361    2.6209  -11.7775 O.2       7 UNK        -0.5186 
     49 N          26.6190    0.7369  -10.6092 N.am      8 UNK        -0.4240 
     50 CA         27.3167    0.0254  -11.6806 C.3       8 UNK         0.0235 
     51 CB         27.1892   -1.4942  -11.4789 C.3       8 UNK        -0.2000 
     52 C          28.7882    0.4573  -11.7713 C.2       8 UNK         0.4941 
     53 O          29.2587    0.7507  -12.8715 O.2       8 UNK        -0.5273 
     54 N          29.4813    0.5128  -10.6267 N.am      9 UNK        -0.4262 
     55 CA         30.8603    0.9793  -10.5099 C.3       9 UNK         0.0264 
     56 CB         31.8443   -0.1353  -10.9139 C.3       9 UNK        -0.1955 
     57 C          31.1113    1.4315   -9.0696 C.2       9 UNK         0.5031 
     58 O          30.8715    0.6593   -8.1407 O.2       9 UNK        -0.5390 
     59 N          31.6291    2.6531   -8.8989 N.am      10 UNK        -0.4204 
     60 CA         31.9616    3.2496   -7.6021 C.3       10 UNK         0.0237 
     61 CB         31.9912    4.7819   -7.7500 C.3       10 UNK        -0.1985 
     62 C          33.2759    2.6796   -7.0317 C.2       10 UNK         0.4970 
     63 O          34.2664    3.4031   -6.9144 O.2       10 UNK        -0.4914 
     64 N          33.2622    1.3814   -6.7124 N.am      11 UNK        -0.4285 
     65 CA         34.3885    0.6209   -6.1497 C.3       11 UNK         0.1007 
     66 C          34.7714    0.9729   -4.6808 C.2       11 UNK         0.5703 
     67 N          33.9647    1.7271   -3.9423 N.am      11 UNK        -0.7361 
     68 O          35.8306    0.5647   -4.2091 O.2       11 UNK        -0.4986 
     69 C69        34.1957   -0.9050   -6.3595 C.3       12 UNK        -0.0947 
     70 S70        32.6845   -1.5659   -5.5784 S.3       12 UNK        -0.2240 
     71 C71        33.0420   -3.3471   -5.6196 C.3       12 UNK         0.0194 
     72 H72        31.5555   -2.4278    3.2968 H         1 UNK         0.0906 
     73 H73        30.8355   -0.8438    3.5986 H         1 UNK         0.0906 
     74 H74        29.8162   -2.2840    3.5560 H         1 UNK         0.0906 
     75 H75        28.6198   -2.4096    1.6352 H         1 UNK         0.3140 
     76 H76        29.2794   -0.9039   -0.6834 H         1 UNK         0.1085 
     77 H77        29.4273   -2.8076   -2.2893 H         1 UNK         0.0836 
     78 H78        30.7871   -2.7640   -1.2119 H         1 UNK         0.0836 
     79 H79        31.7162   -5.2609   -1.1764 H         1 UNK         0.0731 
     80 H80        30.6645   -6.6106   -1.5305 H         1 UNK         0.0731 
     81 H81        32.7108   -4.2080   -3.0547 H         1 UNK         0.1312 
     82 H82        30.7903   -4.1914   -6.8843 H         1 UNK         0.1406 
     83 H83        28.8742   -6.0683   -3.5355 H         1 UNK         0.1631 
     84 H84        28.2405   -6.5338   -6.0934 H         1 UNK         0.0717 
     85 H85        28.6889   -5.2745   -7.2192 H         1 UNK         0.0717 
     86 H86        27.5702   -2.2660   -4.9184 H         1 UNK         0.0934 
     87 H87        28.6843   -2.7895   -6.1436 H         1 UNK         0.0934 
     88 H88        26.8672   -2.6274   -7.8789 H         1 UNK         0.0739 
     89 H89        25.1943   -1.8916   -5.6299 H         1 UNK         0.3093 
     90 H90        22.5391   -0.5805   -7.5897 H         1 UNK         0.0818 
     91 H91        21.2319   -2.3516   -6.4395 H         1 UNK         0.0819 
     92 H92        22.1794   -3.0505   -7.7408 H         1 UNK         0.0819 
     93 H93        22.7084   -3.2468   -6.0761 H         1 UNK         0.0819 
     94 H94        22.7793   -1.0978   -4.7938 H         1 UNK         0.3041 
     95 H95        24.4148    1.9407   -3.8973 H         1 UNK         0.0784 
     96 H96        22.0055    2.5408   -4.1923 H         1 UNK         0.0793 
     97 H97        21.5235    1.0023   -3.4912 H         1 UNK         0.0793 
     98 H98        22.3801    2.1946   -2.5134 H         1 UNK         0.0793 
     99 H99        23.4105   -0.1120   -2.2541 H         1 UNK         0.3024 
    100 H100       24.9489   -1.2629   -1.0185 H         1 UNK         0.1171 
    101 H101       23.9354   -2.9425   -2.6040 H         1 UNK         0.0786 
    102 H102       25.1503   -3.7021   -1.5901 H         1 UNK         0.0786 
    103 H103       25.5288   -3.2975   -3.2609 H         1 UNK         0.0786 
    104 H104       27.5068   -1.2804   -2.3847 H         1 UNK         0.2977 
    105 H105       26.7841    0.1159   -5.5370 H         1 UNK         0.3127 
    106 H106       28.8969    1.6064   -6.6042 H         1 UNK         0.0770 
    107 H107       26.3796    2.6121   -5.1771 H         1 UNK         0.0814 
    108 H108       27.8846    3.5041   -5.3508 H         1 UNK         0.0814 
    109 H109       27.8467    2.0343   -4.3880 H         1 UNK         0.0814 
    110 H110       25.4740    1.5881   -7.6151 H         1 UNK         0.2983 
    111 H111       25.6570    3.6909   -9.5391 H         1 UNK         0.0947 
    112 H112       23.5041    2.7127  -10.3741 H         1 UNK         0.0806 
    113 H113       23.4965    2.8850   -8.6262 H         1 UNK         0.0806 
    114 H114       23.7447    1.2990   -9.3543 H         1 UNK         0.0806 
    115 H115       26.6122    0.2923   -9.6989 H         1 UNK         0.3000 
    116 H116       26.8377    0.2704  -12.6313 H         1 UNK         0.0850 
    117 H117       27.6447   -2.0342  -12.3099 H         1 UNK         0.0810 
    118 H118       26.1438   -1.7994  -11.4261 H         1 UNK         0.0810 
    119 H119       27.6800   -1.8322  -10.5666 H         1 UNK         0.0810 
    120 H120       29.0346    0.2379   -9.7504 H         1 UNK         0.3040 
    121 H121       31.0001    1.8340  -11.1754 H         1 UNK         0.0766 
    122 H122       32.8775    0.1948  -10.7992 H         1 UNK         0.0812 
    123 H123       31.7117   -0.4277  -11.9554 H         1 UNK         0.0812 
    124 H124       31.7152   -1.0256  -10.2967 H         1 UNK         0.0812 
    125 H125       31.8325    3.2131   -9.7139 H         1 UNK         0.3205 
    126 H126       31.1679    3.0053   -6.8930 H         1 UNK         0.0754 
    127 H127       32.2147    5.2621   -6.7963 H         1 UNK         0.0769 
    128 H128       31.0263    5.1643   -8.0845 H         1 UNK         0.0769 
    129 H129       32.7475    5.1072   -8.4650 H         1 UNK         0.0769 
    130 H130       32.4114    0.8559   -6.8924 H         1 UNK         0.2981 
    131 H131       35.2645    0.9005   -6.7379 H         1 UNK         0.0541 
    132 H132       34.2279    1.9527   -2.9962 H         1 UNK         0.3459 
    133 H133       33.0917    2.0593   -4.3184 H         1 UNK         0.3459 
    134 H134       35.0628   -1.4541   -5.9874 H         1 UNK         0.0612 
    135 H135       34.1417   -1.1231   -7.4273 H         1 UNK         0.0612 
    136 H136       33.9583   -3.5482   -5.0619 H         1 UNK         0.0624 
    137 H137       33.2277   -3.6567   -6.6496 H         1 UNK         0.0624 
@<TRIPOS>BOND
     1    1    2 1    
     2    1   72 1    
     3    1   73 1    
     4    1   74 1    
     5    2    3 2    
     6    2    4 am   BACKBONE|DICT|INTERRES
     7    4    5 1    
     8    4   75 1    
     9    5    6 1    
    10    5   35 1    
    11    5   76 1    
    12    6    7 1    
    13    6   77 1    
    14    6   78 1    
    15    7    8 1    
    16    8    9 1    
    17    8   79 1    
    18    8   80 1    
    19    9   10 ar   
    20    9   14 ar   
    21   10   11 ar   
    22   10   81 1    
    23   11   12 ar   
    24   11   71 1    
    25   12   13 ar   
    26   12   82 1    
    27   13   14 ar   
    28   13   15 1    
    29   14   83 1    
    30   15   16 1    
    31   15   84 1    
    32   15   85 1    
    33   16   17 1    
    34   17   18 1    
    35   17   86 1    
    36   17   87 1    
    37   18   19 1    
    38   18   37 1    
    39   18   88 1    
    40   19   20 am   BACKBONE|DICT|INTERRES
    41   19   89 1    
    42   20   21 2    
    43   20   22 1    
    44   22   23 1    
    45   22   24 1    
    46   22   90 1    
    47   23   91 1    
    48   23   92 1    
    49   23   93 1    
    50   24   25 am   BACKBONE|DICT|INTERRES
    51   24   94 1    
    52   25   26 2    
    53   25   27 1    
    54   27   28 1    
    55   27   29 1    
    56   27   95 1    
    57   28   96 1    
    58   28   97 1    
    59   28   98 1    
    60   29   30 am   BACKBONE|DICT|INTERRES
    61   29   99 1    
    62   30   31 2    
    63   30   32 1    
    64   32   33 1    
    65   32   34 1    
    66   32  100 1    
    67   33  101 1    
    68   33  102 1    
    69   33  103 1    
    70   34   35 am   BACKBONE|DICT|INTERRES
    71   34  104 1    
    72   35   36 2    
    73   37   38 2    
    74   37   39 am   BACKBONE|DICT|INTERRES
    75   39   40 1    
    76   39  105 1    
    77   40   41 1    
    78   40   42 1    
    79   40  106 1    
    80   41  107 1    
    81   41  108 1    
    82   41  109 1    
    83   42   43 2    
    84   42   44 am   BACKBONE|DICT|INTERRES
    85   44   45 1    
    86   44  110 1    
    87   45   46 1    
    88   45   47 1    
    89   45  111 1    
    90   46  112 1    
    91   46  113 1    
    92   46  114 1    
    93   47   48 2    
    94   47   49 am   BACKBONE|DICT|INTERRES
    95   49   50 1    
    96   49  115 1    
    97   50   51 1    
    98   50   52 1    
    99   50  116 1    
   100   51  117 1    
   101   51  118 1    
   102   51  119 1    
   103   52   53 2    
   104   52   54 am   BACKBONE|DICT|INTERRES
   105   54   55 1    
   106   54  120 1    
   107   55   56 1    
   108   55   57 1    
   109   55  121 1    
   110   56  122 1    
   111   56  123 1    
   112   56  124 1    
   113   57   58 2    
   114   57   59 am   BACKBONE|DICT|INTERRES
   115   59   60 1    
   116   59  125 1    
   117   60   61 1    
   118   60   62 1    
   119   60  126 1    
   120   61  127 1    
   121   61  128 1    
   122   61  129 1    
   123   62   63 2    
   124   62   64 am   BACKBONE|DICT|INTERRES
   125   64   65 1    
   126   64  130 1    
   127   65   66 1    
   128   65   69 1    
   129   65  131 1    
   130   66   67 am   BACKBONE|DICT|INTERRES
   131   66   68 2    
   132   67  132 1    
   133   67  133 1    
   134   69   70 1    
   135   69  134 1    
   136   69  135 1    
   137   70   71 1    
   138   71  136 1    
   139   71  137 1    
@<TRIPOS>SUBSTRUCTURE
     1 UNK         1 GROUP             0       ****    0 ROOT    
