@<TRIPOS>MOLECULE
3R137
137   139    1
SMALL
USER_CHARGES


@<TRIPOS>ATOM
      1 CA         29.5426   -5.4052   -5.7073 C.3       0 UNK        -0.2020 
      2 C          28.8376   -5.7770   -4.4112 C.2       0 UNK         0.4855 
      3 O          28.6515   -6.9619   -4.1336 O.2       0 UNK        -0.5197 
      4 N          28.4415   -4.7777   -3.6184 N.am      1 UNK        -0.4892 
      5 CA         27.7155   -4.9218   -2.3597 C.3       1 UNK         0.0835 
      6 C6         28.6477   -5.3339   -1.1820 C.3       12 UNK        -0.0855 
      7 S7         29.5925   -4.0147   -0.3357 S.3       12 UNK        -0.2931 
      8 C8         30.8914   -3.5769   -1.5445 C.3       12 UNK         0.0378 
      9 C9         30.5177   -2.3770   -2.4124 C.ar      12 UNK        -0.0802 
     10 C10        30.7464   -2.4027   -3.7929 C.ar      12 UNK        -0.0944 
     11 C11        30.4010   -1.3064   -4.5909 C.ar      12 UNK        -0.0787 
     12 C12        29.8319   -0.1757   -3.9997 C.ar      12 UNK        -0.0862 
     13 C13        29.6153   -0.1276   -2.6214 C.ar      12 UNK        -0.0733 
     14 C14        29.9685   -1.2264   -1.8345 C.ar      12 UNK        -0.0832 
     15 C15        28.9953    1.1000   -1.9729 C.3       12 UNK         0.0240 
     16 S16        27.2222    0.8341   -1.6677 S.3       12 UNK        -0.2522 
     17 C17        26.4329    2.0359   -2.7899 C.3       12 UNK        -0.0967 
     18 CA         26.6220    1.7369   -4.2984 C.3       5 UNK         0.0660 
     19 N          26.2650    0.3573   -4.6572 N.am      5 UNK        -0.4015 
     20 C          26.4442   -0.1960   -5.8664 C.2       4 UNK         0.4946 
     21 O          26.9593    0.3997   -6.8129 O.2       4 UNK        -0.5353 
     22 CA         25.9390   -1.6285   -6.0931 C.3       4 UNK         0.0277 
     23 CB         27.1180   -2.5972   -6.2661 C.3       4 UNK        -0.1981 
     24 N          25.0617   -2.1055   -5.0221 N.am      4 UNK        -0.4209 
     25 C          23.7540   -1.8196   -4.9322 C.2       3 UNK         0.4942 
     26 O          23.1667   -1.0809   -5.7234 O.2       3 UNK        -0.5208 
     27 CA         22.9610   -2.4587   -3.7766 C.3       3 UNK         0.0250 
     28 CB         22.2312   -3.7204   -4.2651 C.3       3 UNK        -0.1990 
     29 N          23.7951   -2.8036   -2.6229 N.am      3 UNK        -0.4232 
     30 C          24.2947   -1.9093   -1.7593 C.2       2 UNK         0.4993 
     31 O          24.0392   -0.7059   -1.8040 O.2       2 UNK        -0.5286 
     32 CA         25.2630   -2.4407   -0.6843 C.3       2 UNK         0.0209 
     33 CB         24.5021   -2.7667    0.6109 C.3       2 UNK        -0.1931 
     34 N          26.0577   -3.6108   -1.0899 N.am      2 UNK        -0.4546 
     35 C          26.8948   -3.6361   -2.1371 C.2       1 UNK         0.5154 
     36 O          27.0045   -2.7013   -2.9350 O.2       1 UNK        -0.5181 
     37 C          25.8815    2.7961   -5.1433 C.2       5 UNK         0.5014 
     38 O          26.4162    3.8874   -5.3424 O.2       5 UNK        -0.5248 
     39 N          24.6817    2.4560   -5.6380 N.am      6 UNK        -0.4434 
     40 CA         23.8996    3.2787   -6.5621 C.3       6 UNK         0.0363 
     41 CB         22.4575    2.7482   -6.6073 C.3       6 UNK        -0.1936 
     42 C          24.4965    3.3316   -7.9816 C.2       6 UNK         0.5081 
     43 O          24.2617    4.3108   -8.6903 O.2       6 UNK        -0.5248 
     44 N          25.2399    2.2886   -8.3771 N.am      7 UNK        -0.4718 
     45 CA         25.9197    2.1985   -9.6695 C.3       7 UNK         0.0273 
     46 CB         25.9069    0.7398  -10.1595 C.3       7 UNK        -0.1935 
     47 C          27.3573    2.7272   -9.5757 C.2       7 UNK         0.5018 
     48 O          27.7665    3.5040  -10.4392 O.2       7 UNK        -0.5186 
     49 N          28.0873    2.2911   -8.5351 N.am      8 UNK        -0.4240 
     50 CA         29.4939    2.5971   -8.2398 C.3       8 UNK         0.0235 
     51 CB         29.6483    4.0676   -7.8003 C.3       8 UNK        -0.2000 
     52 C          30.4444    2.2064   -9.3916 C.2       8 UNK         0.4941 
     53 O          31.3458    2.9703   -9.7469 O.2       8 UNK        -0.5273 
     54 N          30.2068    1.0238   -9.9759 N.am      9 UNK        -0.4262 
     55 CA         30.9038    0.4867  -11.1465 C.3       9 UNK         0.0264 
     56 CB         30.0316   -0.6192  -11.7702 C.3       9 UNK        -0.1955 
     57 C          32.3261   -0.0030  -10.8121 C.2       9 UNK         0.5031 
     58 O          32.5794   -1.2100  -10.8200 O.2       9 UNK        -0.5390 
     59 N          33.2188    0.9454  -10.4955 N.am      10 UNK        -0.4204 
     60 CA         34.6369    0.8099  -10.1207 C.3       10 UNK         0.0237 
     61 CB         35.4619    0.1300  -11.2314 C.3       10 UNK        -0.1985 
     62 C          34.8685    0.1348   -8.7562 C.2       10 UNK         0.4970 
     63 O          35.6478    0.6557   -7.9569 O.2       10 UNK        -0.4914 
     64 N          34.1637   -0.9737   -8.5070 N.am      11 UNK        -0.4285 
     65 CA         34.0902   -1.7133   -7.2386 C.3       11 UNK         0.1007 
     66 C          35.4415   -2.3744   -6.8277 C.2       11 UNK         0.5703 
     67 N          35.6220   -2.7347   -5.5631 N.am      11 UNK        -0.7361 
     68 O          36.3159   -2.6197   -7.6577 O.2       11 UNK        -0.4986 
     69 C69        33.4147   -0.8842   -6.1032 C.3       12 UNK        -0.0947 
     70 S70        31.8480   -0.1041   -6.6260 S.3       12 UNK        -0.2240 
     71 C71        30.6221   -1.3353   -6.0957 C.3       12 UNK         0.0194 
     72 H72        30.5781   -5.7434   -5.6816 H         1 UNK         0.0906 
     73 H73        29.0488   -5.8830   -6.5530 H         1 UNK         0.0906 
     74 H74        29.5391   -4.3305   -5.8812 H         1 UNK         0.0906 
     75 H75        28.5673   -3.8068   -3.8819 H         1 UNK         0.3140 
     76 H76        26.9820   -5.7190   -2.5019 H         1 UNK         0.1085 
     77 H77        28.0400   -5.8126   -0.4127 H         1 UNK         0.0836 
     78 H78        29.3446   -6.1100   -1.5024 H         1 UNK         0.0836 
     79 H79        31.1259   -4.4481   -2.1581 H         1 UNK         0.0731 
     80 H80        31.8032   -3.3310   -0.9988 H         1 UNK         0.0731 
     81 H81        31.1919   -3.2773   -4.2462 H         1 UNK         0.1312 
     82 H82        29.5698    0.6681   -4.6207 H         1 UNK         0.1406 
     83 H83        29.7955   -1.1907   -0.7676 H         1 UNK         0.1631 
     84 H84        29.1541    1.9864   -2.5884 H         1 UNK         0.0717 
     85 H85        29.4897    1.3005   -1.0214 H         1 UNK         0.0717 
     86 H86        25.3698    2.0532   -2.5400 H         1 UNK         0.0934 
     87 H87        26.8140    3.0299   -2.5462 H         1 UNK         0.0934 
     88 H88        27.6785    1.8592   -4.5354 H         1 UNK         0.0739 
     89 H89        25.8851   -0.2121   -3.9133 H         1 UNK         0.3093 
     90 H90        25.3728   -1.6263   -7.0272 H         1 UNK         0.0818 
     91 H91        27.6823   -2.3598   -7.1685 H         1 UNK         0.0819 
     92 H92        27.8086   -2.5394   -5.4259 H         1 UNK         0.0819 
     93 H93        26.7800   -3.6293   -6.3593 H         1 UNK         0.0819 
     94 H94        25.5110   -2.6290   -4.2783 H         1 UNK         0.3041 
     95 H95        22.2095   -1.7340   -3.4550 H         1 UNK         0.0784 
     96 H96        21.5776   -3.4908   -5.1081 H         1 UNK         0.0793 
     97 H97        22.9297   -4.4905   -4.5952 H         1 UNK         0.0793 
     98 H98        21.6059   -4.1465   -3.4803 H         1 UNK         0.0793 
     99 H99        24.0421   -3.7754   -2.5050 H         1 UNK         0.3024 
    100 H100       25.9678   -1.6340   -0.4713 H         1 UNK         0.1171 
    101 H101       25.1861   -3.0304    1.4178 H         1 UNK         0.0786 
    102 H102       23.9224   -1.9067    0.9497 H         1 UNK         0.0786 
    103 H103       23.8063   -3.5954    0.4735 H         1 UNK         0.0786 
    104 H104       26.0160   -4.4154   -0.4808 H         1 UNK         0.2977 
    105 H105       24.3094    1.5426   -5.4173 H         1 UNK         0.3127 
    106 H106       23.8768    4.3004   -6.1765 H         1 UNK         0.0770 
    107 H107       22.4168    1.7182   -6.9649 H         1 UNK         0.0814 
    108 H108       21.8408    3.3505   -7.2760 H         1 UNK         0.0814 
    109 H109       21.9913    2.7803   -5.6224 H         1 UNK         0.0814 
    110 H110       25.4417    1.5532   -7.7112 H         1 UNK         0.2983 
    111 H111       25.3886    2.8027  -10.4087 H         1 UNK         0.0947 
    112 H112       26.4089    0.6490  -11.1238 H         1 UNK         0.0806 
    113 H113       24.8872    0.3777  -10.2909 H         1 UNK         0.0806 
    114 H114       26.4118    0.0676   -9.4650 H         1 UNK         0.0806 
    115 H115       27.6467    1.6282   -7.8965 H         1 UNK         0.3000 
    116 H116       29.7681    1.9707   -7.3901 H         1 UNK         0.0850 
    117 H117       30.6664    4.2707   -7.4663 H         1 UNK         0.0810 
    118 H118       28.9812    4.3038   -6.9708 H         1 UNK         0.0810 
    119 H119       29.4283    4.7583   -8.6150 H         1 UNK         0.0810 
    120 H120       29.4652    0.4529   -9.5977 H         1 UNK         0.3040 
    121 H121       31.0011    1.2853  -11.8853 H         1 UNK         0.0766 
    122 H122       29.0585   -0.2332  -12.0748 H         1 UNK         0.0812 
    123 H123       29.8639   -1.4434  -11.0756 H         1 UNK         0.0812 
    124 H124       30.5063   -1.0348  -12.6601 H         1 UNK         0.0812 
    125 H125       32.8379    1.8851  -10.4060 H         1 UNK         0.3205 
    126 H126       35.0062    1.8323  -10.0250 H         1 UNK         0.0754 
    127 H127       36.5235    0.1310  -10.9807 H         1 UNK         0.0769 
    128 H128       35.3527    0.6521  -12.1820 H         1 UNK         0.0769 
    129 H129       35.1685   -0.9091  -11.3836 H         1 UNK         0.0769 
    130 H130       33.5677   -1.3136   -9.2575 H         1 UNK         0.2981 
    131 H131       33.4322   -2.5559   -7.4523 H         1 UNK         0.0541 
    132 H132       34.9168   -2.5619   -4.8651 H         1 UNK         0.3459 
    133 H133       36.4872   -3.1812   -5.3021 H         1 UNK         0.3459 
    134 H134       34.0831   -0.0908   -5.7652 H         1 UNK         0.0612 
    135 H135       33.2182   -1.5065   -5.2296 H         1 UNK         0.0612 
    136 H136       29.6795   -1.1126   -6.5962 H         1 UNK         0.0624 
    137 H137       30.9301   -2.3247   -6.4360 H         1 UNK         0.0624 
@<TRIPOS>BOND
     1    1    2 1    
     2    1   72 1    
     3    1   73 1    
     4    1   74 1    
     5    2    3 2    
     6    2    4 am   BACKBONE|DICT|INTERRES
     7    4    5 1    
     8    4   75 1    
     9    5    6 1    
    10    5   35 1    
    11    5   76 1    
    12    6    7 1    
    13    6   77 1    
    14    6   78 1    
    15    7    8 1    
    16    8    9 1    
    17    8   79 1    
    18    8   80 1    
    19    9   10 ar   
    20    9   14 ar   
    21   10   11 ar   
    22   10   81 1    
    23   11   12 ar   
    24   11   71 1    
    25   12   13 ar   
    26   12   82 1    
    27   13   14 ar   
    28   13   15 1    
    29   14   83 1    
    30   15   16 1    
    31   15   84 1    
    32   15   85 1    
    33   16   17 1    
    34   17   18 1    
    35   17   86 1    
    36   17   87 1    
    37   18   19 1    
    38   18   37 1    
    39   18   88 1    
    40   19   20 am   BACKBONE|DICT|INTERRES
    41   19   89 1    
    42   20   21 2    
    43   20   22 1    
    44   22   23 1    
    45   22   24 1    
    46   22   90 1    
    47   23   91 1    
    48   23   92 1    
    49   23   93 1    
    50   24   25 am   BACKBONE|DICT|INTERRES
    51   24   94 1    
    52   25   26 2    
    53   25   27 1    
    54   27   28 1    
    55   27   29 1    
    56   27   95 1    
    57   28   96 1    
    58   28   97 1    
    59   28   98 1    
    60   29   30 am   BACKBONE|DICT|INTERRES
    61   29   99 1    
    62   30   31 2    
    63   30   32 1    
    64   32   33 1    
    65   32   34 1    
    66   32  100 1    
    67   33  101 1    
    68   33  102 1    
    69   33  103 1    
    70   34   35 am   BACKBONE|DICT|INTERRES
    71   34  104 1    
    72   35   36 2    
    73   37   38 2    
    74   37   39 am   BACKBONE|DICT|INTERRES
    75   39   40 1    
    76   39  105 1    
    77   40   41 1    
    78   40   42 1    
    79   40  106 1    
    80   41  107 1    
    81   41  108 1    
    82   41  109 1    
    83   42   43 2    
    84   42   44 am   BACKBONE|DICT|INTERRES
    85   44   45 1    
    86   44  110 1    
    87   45   46 1    
    88   45   47 1    
    89   45  111 1    
    90   46  112 1    
    91   46  113 1    
    92   46  114 1    
    93   47   48 2    
    94   47   49 am   BACKBONE|DICT|INTERRES
    95   49   50 1    
    96   49  115 1    
    97   50   51 1    
    98   50   52 1    
    99   50  116 1    
   100   51  117 1    
   101   51  118 1    
   102   51  119 1    
   103   52   53 2    
   104   52   54 am   BACKBONE|DICT|INTERRES
   105   54   55 1    
   106   54  120 1    
   107   55   56 1    
   108   55   57 1    
   109   55  121 1    
   110   56  122 1    
   111   56  123 1    
   112   56  124 1    
   113   57   58 2    
   114   57   59 am   BACKBONE|DICT|INTERRES
   115   59   60 1    
   116   59  125 1    
   117   60   61 1    
   118   60   62 1    
   119   60  126 1    
   120   61  127 1    
   121   61  128 1    
   122   61  129 1    
   123   62   63 2    
   124   62   64 am   BACKBONE|DICT|INTERRES
   125   64   65 1    
   126   64  130 1    
   127   65   66 1    
   128   65   69 1    
   129   65  131 1    
   130   66   67 am   BACKBONE|DICT|INTERRES
   131   66   68 2    
   132   67  132 1    
   133   67  133 1    
   134   69   70 1    
   135   69  134 1    
   136   69  135 1    
   137   70   71 1    
   138   71  136 1    
   139   71  137 1    
@<TRIPOS>SUBSTRUCTURE
     1 UNK         1 GROUP             0       ****    0 ROOT    
