@<TRIPOS>MOLECULE
3R137
137   139    1
SMALL
USER_CHARGES


@<TRIPOS>ATOM
      1 CA         25.9937   -7.2739    0.5250 C.3       0 UNK        -0.2020 
      2 C          26.4438   -6.2537   -0.5102 C.2       0 UNK         0.4855 
      3 O          26.8393   -6.6399   -1.6100 O.2       0 UNK        -0.5197 
      4 N          26.3809   -4.9603   -0.1606 N.am      1 UNK        -0.4892 
      5 CA         26.7731   -3.8066   -0.9872 C.3       1 UNK         0.0835 
      6 C6         28.2987   -3.7325   -1.2694 C.3       12 UNK        -0.0855 
      7 S7         29.2567   -3.5367    0.2713 S.3       12 UNK        -0.2931 
      8 C8         30.9508   -3.8662   -0.3107 C.3       12 UNK         0.0378 
      9 C9         31.3988   -2.8829   -1.3846 C.ar      12 UNK        -0.0802 
     10 C10        31.7043   -3.3391   -2.6696 C.ar      12 UNK        -0.0944 
     11 C11        32.1220   -2.4442   -3.6574 C.ar      12 UNK        -0.0787 
     12 C12        32.2370   -1.0850   -3.3554 C.ar      12 UNK        -0.0862 
     13 C13        31.9173   -0.6098   -2.0785 C.ar      12 UNK        -0.0733 
     14 C14        31.5119   -1.5189   -1.0951 C.ar      12 UNK        -0.0832 
     15 C15        32.0098    0.8762   -1.7360 C.3       12 UNK         0.0240 
     16 S16        31.4510    1.9997   -3.0654 S.3       12 UNK        -0.2522 
     17 C17        29.7399    1.4404   -3.3744 C.3       12 UNK        -0.0967 
     18 CA         29.4865    1.1981   -4.8852 C.3       5 UNK         0.0660 
     19 N          28.4685    0.1739   -5.1186 N.am      5 UNK        -0.4015 
     20 C          28.1042   -0.2813   -6.3255 C.2       4 UNK         0.4946 
     21 O          28.6643    0.0378   -7.3769 O.2       4 UNK        -0.5353 
     22 CA         26.8714   -1.1976   -6.3812 C.3       4 UNK         0.0277 
     23 CB         27.2954   -2.6658   -6.5297 C.3       4 UNK        -0.1981 
     24 N          25.9546   -1.0668   -5.2396 N.am      4 UNK        -0.4209 
     25 C          25.2699    0.0411   -4.9080 C.2       3 UNK         0.4942 
     26 O          25.4696    1.1339   -5.4399 O.2       3 UNK        -0.5208 
     27 CA         24.2194   -0.0426   -3.7798 C.3       3 UNK         0.0250 
     28 CB         22.8973    0.6395   -4.1896 C.3       3 UNK        -0.1990 
     29 N          23.9795   -1.3944   -3.2556 N.am      3 UNK        -0.4232 
     30 C          23.4810   -2.4640   -3.8971 C.2       2 UNK         0.4993 
     31 O          23.0314   -2.4289   -5.0431 O.2       2 UNK        -0.5286 
     32 CA         23.5409   -3.8099   -3.1389 C.3       2 UNK         0.0209 
     33 CB         23.6739   -5.0115   -4.0991 C.3       2 UNK        -0.1931 
     34 N          24.5882   -3.8768   -2.1028 N.am      2 UNK        -0.4546 
     35 C          25.9089   -3.6795   -2.2623 C.2       1 UNK         0.5154 
     36 O          26.4240   -3.3685   -3.3380 O.2       1 UNK        -0.5181 
     37 C          29.1566    2.5154   -5.6228 C.2       5 UNK         0.5014 
     38 O          30.0463    3.1015   -6.2404 O.2       5 UNK        -0.5248 
     39 N          27.8811    2.9242   -5.5877 N.am      6 UNK        -0.4434 
     40 CA         27.3795    4.1117   -6.2745 C.3       6 UNK         0.0363 
     41 CB         26.3263    4.8028   -5.3922 C.3       6 UNK        -0.1936 
     42 C          26.7846    3.7521   -7.6419 C.2       6 UNK         0.5081 
     43 O          27.1237    4.3931   -8.6358 O.2       6 UNK        -0.5248 
     44 N          25.9063    2.7398   -7.6707 N.am      7 UNK        -0.4718 
     45 CA         25.0798    2.3772   -8.8255 C.3       7 UNK         0.0273 
     46 CB         24.0012    1.3738   -8.3852 C.3       7 UNK        -0.1935 
     47 C          25.8664    1.8291  -10.0251 C.2       7 UNK         0.5018 
     48 O          25.4403    2.0427  -11.1609 O.2       7 UNK        -0.5186 
     49 N          26.9875    1.1462   -9.7607 N.am      8 UNK        -0.4240 
     50 CA         27.8792    0.5928  -10.7820 C.3       8 UNK         0.0235 
     51 CB         27.9562   -0.9349  -10.6068 C.3       8 UNK        -0.2000 
     52 C          29.2675    1.2586  -10.7680 C.2       8 UNK         0.4941 
     53 O          30.1415    0.7981  -11.5010 O.2       8 UNK        -0.5273 
     54 N          29.4353    2.3334   -9.9763 N.am      9 UNK        -0.4262 
     55 CA         30.6449    3.1507   -9.8062 C.3       9 UNK         0.0264 
     56 CB         30.9442    3.9503  -11.0920 C.3       9 UNK        -0.1955 
     57 C          31.8497    2.3160   -9.3315 C.2       9 UNK         0.5031 
     58 O          32.7415    2.0074  -10.1245 O.2       9 UNK        -0.5390 
     59 N          31.8310    1.9610   -8.0395 N.am      10 UNK        -0.4204 
     60 CA         32.7695    1.0694   -7.3468 C.3       10 UNK         0.0237 
     61 CB         34.1954    1.6617   -7.3165 C.3       10 UNK        -0.1985 
     62 C          32.7154   -0.3771   -7.8789 C.2       10 UNK         0.4970 
     63 O          33.7591   -1.0215   -7.9991 O.2       10 UNK        -0.4914 
     64 N          31.4933   -0.8592   -8.1488 N.am      11 UNK        -0.4285 
     65 CA         31.1566   -2.2016   -8.6530 C.3       11 UNK         0.1007 
     66 C          31.6008   -2.4727  -10.1201 C.2       11 UNK         0.5703 
     67 N          31.0539   -3.5106  -10.7406 N.am      11 UNK        -0.7361 
     68 O          32.4258   -1.7777  -10.7080 O.2       11 UNK        -0.4986 
     69 C69        31.5845   -3.3533   -7.6982 C.3       12 UNK        -0.0947 
     70 S70        30.9099   -3.1491   -6.0175 S.3       12 UNK        -0.2240 
     71 C71        32.4365   -2.9428   -5.0558 C.3       12 UNK         0.0194 
     72 H72        25.6702   -6.8013    1.4523 H         1 UNK         0.0906 
     73 H73        25.1624   -7.8614    0.1359 H         1 UNK         0.0906 
     74 H74        26.8115   -7.9547    0.7598 H         1 UNK         0.0906 
     75 H75        26.0558   -4.7255    0.7677 H         1 UNK         0.3140 
     76 H76        26.5203   -2.9219   -0.4002 H         1 UNK         0.1085 
     77 H77        28.6403   -4.6192   -1.8058 H         1 UNK         0.0836 
     78 H78        28.5342   -2.8790   -1.9087 H         1 UNK         0.0836 
     79 H79        31.0067   -4.8940   -0.6732 H         1 UNK         0.0731 
     80 H80        31.6345   -3.8031    0.5370 H         1 UNK         0.0731 
     81 H81        31.6113   -4.3901   -2.9075 H         1 UNK         0.1312 
     82 H82        32.5617   -0.3949   -4.1213 H         1 UNK         0.1406 
     83 H83        31.2700   -1.1674   -0.1009 H         1 UNK         0.1631 
     84 H84        33.0466    1.1125   -1.4937 H         1 UNK         0.0717 
     85 H85        31.4260    1.0966   -0.8408 H         1 UNK         0.0717 
     86 H86        29.5701    0.5200   -2.8143 H         1 UNK         0.0934 
     87 H87        29.0415    2.1668   -2.9534 H         1 UNK         0.0934 
     88 H88        30.3977    0.7937   -5.3266 H         1 UNK         0.0739 
     89 H89        27.9565   -0.1576   -4.3153 H         1 UNK         0.3093 
     90 H90        26.3137   -0.9185   -7.2767 H         1 UNK         0.0818 
     91 H91        27.9440   -2.8019   -7.3959 H         1 UNK         0.0819 
     92 H92        27.8429   -3.0162   -5.6540 H         1 UNK         0.0819 
     93 H93        26.4317   -3.3169   -6.6658 H         1 UNK         0.0819 
     94 H94        25.7995   -1.9107   -4.6976 H         1 UNK         0.3041 
     95 H95        24.6364    0.5280   -2.9488 H         1 UNK         0.0784 
     96 H96        22.1643    0.6027   -3.3839 H         1 UNK         0.0793 
     97 H97        23.0574    1.6911   -4.4316 H         1 UNK         0.0793 
     98 H98        22.4543    0.1719   -5.0694 H         1 UNK         0.0793 
     99 H99        24.3112   -1.5504   -2.3142 H         1 UNK         0.3024 
    100 H100       22.5841   -3.9023   -2.6222 H         1 UNK         0.1171 
    101 H101       23.7004   -5.9545   -3.5529 H         1 UNK         0.0786 
    102 H102       22.8297   -5.0623   -4.7879 H         1 UNK         0.0786 
    103 H103       24.5817   -4.9482   -4.7004 H         1 UNK         0.0786 
    104 H104       24.2668   -4.1202   -1.1753 H         1 UNK         0.2977 
    105 H105       27.1859    2.3315   -5.1484 H         1 UNK         0.3127 
    106 H106       28.1936    4.8216   -6.4383 H         1 UNK         0.0770 
    107 H107       25.4850    4.1450   -5.1688 H         1 UNK         0.0814 
    108 H108       25.9257    5.6896   -5.8853 H         1 UNK         0.0814 
    109 H109       26.7571    5.1267   -4.4448 H         1 UNK         0.0814 
    110 H110       25.7113    2.2337   -6.8071 H         1 UNK         0.2983 
    111 H111       24.5762    3.2862   -9.1622 H         1 UNK         0.0947 
    112 H112       23.3324    1.1308   -9.2120 H         1 UNK         0.0806 
    113 H113       23.3871    1.7781   -7.5801 H         1 UNK         0.0806 
    114 H114       24.4372    0.4386   -8.0336 H         1 UNK         0.0806 
    115 H115       27.2730    1.0097   -8.7979 H         1 UNK         0.3000 
    116 H116       27.4803    0.7830  -11.7805 H         1 UNK         0.0850 
    117 H117       28.6558   -1.3852  -11.3123 H         1 UNK         0.0810 
    118 H118       26.9842   -1.3966  -10.7800 H         1 UNK         0.0810 
    119 H119       28.2749   -1.2100   -9.6044 H         1 UNK         0.0810 
    120 H120       28.6325    2.6442   -9.4461 H         1 UNK         0.3040 
    121 H121       30.4230    3.8737   -9.0190 H         1 UNK         0.0766 
    122 H122       31.1615    3.2975  -11.9381 H         1 UNK         0.0812 
    123 H123       31.8100    4.5987  -10.9528 H         1 UNK         0.0812 
    124 H124       30.1027    4.5860  -11.3673 H         1 UNK         0.0812 
    125 H125       31.0813    2.3362   -7.4561 H         1 UNK         0.3205 
    126 H126       32.4320    1.0200   -6.3121 H         1 UNK         0.0754 
    127 H127       34.8485    1.0706   -6.6733 H         1 UNK         0.0769 
    128 H128       34.1934    2.6794   -6.9264 H         1 UNK         0.0769 
    129 H129       34.6499    1.6816   -8.3073 H         1 UNK         0.0769 
    130 H130       30.6917   -0.2559   -8.0087 H         1 UNK         0.2981 
    131 H131       30.0683   -2.2055   -8.6788 H         1 UNK         0.0541 
    132 H132       30.3767   -4.0997  -10.2823 H         1 UNK         0.3459 
    133 H133       31.3267   -3.7081  -11.6905 H         1 UNK         0.3459 
    134 H134       32.6710   -3.4430   -7.6591 H         1 UNK         0.0612 
    135 H135       31.2209   -4.3126   -8.0696 H         1 UNK         0.0612 
    136 H136       33.1023   -2.2434   -5.5624 H         1 UNK         0.0624 
    137 H137       32.9654   -3.8957   -5.0067 H         1 UNK         0.0624 
@<TRIPOS>BOND
     1    1    2 1    
     2    1   72 1    
     3    1   73 1    
     4    1   74 1    
     5    2    3 2    
     6    2    4 am   BACKBONE|DICT|INTERRES
     7    4    5 1    
     8    4   75 1    
     9    5    6 1    
    10    5   35 1    
    11    5   76 1    
    12    6    7 1    
    13    6   77 1    
    14    6   78 1    
    15    7    8 1    
    16    8    9 1    
    17    8   79 1    
    18    8   80 1    
    19    9   10 ar   
    20    9   14 ar   
    21   10   11 ar   
    22   10   81 1    
    23   11   12 ar   
    24   11   71 1    
    25   12   13 ar   
    26   12   82 1    
    27   13   14 ar   
    28   13   15 1    
    29   14   83 1    
    30   15   16 1    
    31   15   84 1    
    32   15   85 1    
    33   16   17 1    
    34   17   18 1    
    35   17   86 1    
    36   17   87 1    
    37   18   19 1    
    38   18   37 1    
    39   18   88 1    
    40   19   20 am   BACKBONE|DICT|INTERRES
    41   19   89 1    
    42   20   21 2    
    43   20   22 1    
    44   22   23 1    
    45   22   24 1    
    46   22   90 1    
    47   23   91 1    
    48   23   92 1    
    49   23   93 1    
    50   24   25 am   BACKBONE|DICT|INTERRES
    51   24   94 1    
    52   25   26 2    
    53   25   27 1    
    54   27   28 1    
    55   27   29 1    
    56   27   95 1    
    57   28   96 1    
    58   28   97 1    
    59   28   98 1    
    60   29   30 am   BACKBONE|DICT|INTERRES
    61   29   99 1    
    62   30   31 2    
    63   30   32 1    
    64   32   33 1    
    65   32   34 1    
    66   32  100 1    
    67   33  101 1    
    68   33  102 1    
    69   33  103 1    
    70   34   35 am   BACKBONE|DICT|INTERRES
    71   34  104 1    
    72   35   36 2    
    73   37   38 2    
    74   37   39 am   BACKBONE|DICT|INTERRES
    75   39   40 1    
    76   39  105 1    
    77   40   41 1    
    78   40   42 1    
    79   40  106 1    
    80   41  107 1    
    81   41  108 1    
    82   41  109 1    
    83   42   43 2    
    84   42   44 am   BACKBONE|DICT|INTERRES
    85   44   45 1    
    86   44  110 1    
    87   45   46 1    
    88   45   47 1    
    89   45  111 1    
    90   46  112 1    
    91   46  113 1    
    92   46  114 1    
    93   47   48 2    
    94   47   49 am   BACKBONE|DICT|INTERRES
    95   49   50 1    
    96   49  115 1    
    97   50   51 1    
    98   50   52 1    
    99   50  116 1    
   100   51  117 1    
   101   51  118 1    
   102   51  119 1    
   103   52   53 2    
   104   52   54 am   BACKBONE|DICT|INTERRES
   105   54   55 1    
   106   54  120 1    
   107   55   56 1    
   108   55   57 1    
   109   55  121 1    
   110   56  122 1    
   111   56  123 1    
   112   56  124 1    
   113   57   58 2    
   114   57   59 am   BACKBONE|DICT|INTERRES
   115   59   60 1    
   116   59  125 1    
   117   60   61 1    
   118   60   62 1    
   119   60  126 1    
   120   61  127 1    
   121   61  128 1    
   122   61  129 1    
   123   62   63 2    
   124   62   64 am   BACKBONE|DICT|INTERRES
   125   64   65 1    
   126   64  130 1    
   127   65   66 1    
   128   65   69 1    
   129   65  131 1    
   130   66   67 am   BACKBONE|DICT|INTERRES
   131   66   68 2    
   132   67  132 1    
   133   67  133 1    
   134   69   70 1    
   135   69  134 1    
   136   69  135 1    
   137   70   71 1    
   138   71  136 1    
   139   71  137 1    
@<TRIPOS>SUBSTRUCTURE
     1 UNK         1 GROUP             0       ****    0 ROOT    
