@<TRIPOS>MOLECULE
3R137
137   139    1
SMALL
USER_CHARGES


@<TRIPOS>ATOM
      1 CA         30.3906    0.5769   -1.1866 C.3       0 UNK        -0.2020 
      2 C          29.6938   -0.6786   -1.6868 C.2       0 UNK         0.4855 
      3 O          29.2653   -0.7281   -2.8393 O.2       0 UNK        -0.5197 
      4 N          29.5592   -1.6903   -0.8204 N.am      1 UNK        -0.4892 
      5 CA         28.8826   -2.9605   -1.1063 C.3       1 UNK         0.0835 
      6 C6         29.4211   -4.1234   -0.2294 C.3       12 UNK        -0.0855 
      7 S7         31.2226   -4.3808   -0.3679 S.3       12 UNK        -0.2931 
      8 C8         31.3232   -5.7116   -1.6077 C.3       12 UNK         0.0378 
      9 C9         31.1441   -5.1728   -3.0188 C.ar      12 UNK        -0.0802 
     10 C10        32.1833   -4.4611   -3.6239 C.ar      12 UNK        -0.0944 
     11 C11        32.0391   -3.9416   -4.9142 C.ar      12 UNK        -0.0787 
     12 C12        30.8449   -4.1623   -5.6076 C.ar      12 UNK        -0.0862 
     13 C13        29.7996   -4.8831   -5.0183 C.ar      12 UNK        -0.0733 
     14 C14        29.9556   -5.3877   -3.7232 C.ar      12 UNK        -0.0832 
     15 C15        28.5076   -5.1339   -5.7867 C.3       12 UNK         0.0240 
     16 S16        27.1209   -4.1408   -5.1472 S.3       12 UNK        -0.2522 
     17 C17        27.6517   -2.4517   -5.5750 C.3       12 UNK        -0.0967 
     18 CA         26.7713   -1.7903   -6.6642 C.3       5 UNK         0.0660 
     19 N          25.3667   -1.6534   -6.2799 N.am      5 UNK        -0.4015 
     20 C          24.3586   -1.4780   -7.1472 C.2       4 UNK         0.4946 
     21 O          24.4878   -1.5362   -8.3703 O.2       4 UNK        -0.5353 
     22 CA         22.9680   -1.1705   -6.5612 C.3       4 UNK         0.0277 
     23 CB         22.1599   -2.4672   -6.3906 C.3       4 UNK        -0.1981 
     24 N          23.0182   -0.4601   -5.2811 N.am      4 UNK        -0.4209 
     25 C          23.4836    0.7867   -5.1102 C.2       3 UNK         0.4942 
     26 O          23.8695    1.5083   -6.0287 O.2       3 UNK        -0.5208 
     27 CA         23.5972    1.2815   -3.6558 C.3       3 UNK         0.0250 
     28 CB         22.2752    1.9135   -3.1923 C.3       3 UNK        -0.1990 
     29 N          23.9960    0.2205   -2.7204 N.am      3 UNK        -0.4232 
     30 C          25.1486   -0.4569   -2.8082 C.2       2 UNK         0.4993 
     31 O          26.0109   -0.2220   -3.6580 O.2       2 UNK        -0.5286 
     32 CA         25.3343   -1.6423   -1.8584 C.3       2 UNK         0.0209 
     33 CB         24.4898   -2.8437   -2.3314 C.3       2 UNK        -0.1931 
     34 N          26.7516   -1.9951   -1.8396 N.am      2 UNK        -0.4546 
     35 C          27.3559   -2.7869   -0.9503 C.2       1 UNK         0.5154 
     36 O          26.7617   -3.3303   -0.0163 O.2       1 UNK        -0.5181 
     37 C          27.3293   -0.4073   -7.0278 C.2       5 UNK         0.5014 
     38 O          27.7855   -0.2148   -8.1539 O.2       5 UNK        -0.5248 
     39 N          27.2624    0.5330   -6.0741 N.am      6 UNK        -0.4434 
     40 CA         27.8537    1.8724   -6.1479 C.3       6 UNK         0.0363 
     41 CB         27.6393    2.5875   -4.8051 C.3       6 UNK        -0.1936 
     42 C          27.3657    2.7449   -7.3185 C.2       6 UNK         0.5081 
     43 O          28.0785    3.6639   -7.7216 O.2       6 UNK        -0.5248 
     44 N          26.1814    2.4357   -7.8605 N.am      7 UNK        -0.4718 
     45 CA         25.6266    3.0417   -9.0704 C.3       7 UNK         0.0273 
     46 CB         24.1554    2.6151   -9.2064 C.3       7 UNK        -0.1935 
     47 C          26.3975    2.7109  -10.3654 C.2       7 UNK         0.5018 
     48 O          26.2167    3.4350  -11.3462 O.2       7 UNK        -0.5186 
     49 N          27.2072    1.6396  -10.3766 N.am      8 UNK        -0.4240 
     50 CA         27.9107    1.1633  -11.5734 C.3       8 UNK         0.0235 
     51 CB         27.0952    0.0344  -12.2280 C.3       8 UNK        -0.2000 
     52 C          29.3527    0.7027  -11.3101 C.2       8 UNK         0.4941 
     53 O          30.2080    0.9160  -12.1714 O.2       8 UNK        -0.5273 
     54 N          29.6073    0.0554  -10.1667 N.am      9 UNK        -0.4262 
     55 CA         30.9110   -0.4966   -9.7982 C.3       9 UNK         0.0264 
     56 CB         30.7060   -1.5905   -8.7346 C.3       9 UNK        -0.1955 
     57 C          31.8609    0.5854   -9.2646 C.2       9 UNK         0.5031 
     58 O          31.4107    1.6123   -8.7497 O.2       9 UNK        -0.5390 
     59 N          33.1675    0.2894   -9.3204 N.am      10 UNK        -0.4204 
     60 CA         34.2561    1.1273   -8.7971 C.3       10 UNK         0.0237 
     61 CB         35.6051    0.4901   -9.1697 C.3       10 UNK        -0.1985 
     62 C          34.1875    1.3898   -7.2790 C.2       10 UNK         0.4970 
     63 O          34.7731    2.3676   -6.8124 O.2       10 UNK        -0.4914 
     64 N          33.4638    0.5327   -6.5478 N.am      11 UNK        -0.4285 
     65 CA         33.1064    0.7143   -5.1340 C.3       11 UNK         0.1007 
     66 C          32.1006    1.8749   -4.8688 C.2       11 UNK         0.5703 
     67 N          31.4568    2.4540   -5.8766 N.am      11 UNK        -0.7361 
     68 O          31.9232    2.2774   -3.7224 O.2       11 UNK        -0.4986 
     69 C69        32.6177   -0.6141   -4.4984 C.3       12 UNK        -0.0947 
     70 S70        33.9157   -1.8957   -4.5133 S.3       12 UNK        -0.2240 
     71 C71        33.1839   -3.1822   -5.5789 C.3       12 UNK         0.0194 
     72 H72        29.9168    1.4638   -1.6073 H         1 UNK         0.0906 
     73 H73        30.3496    0.6557   -0.1005 H         1 UNK         0.0906 
     74 H74        31.4363    0.5762   -1.4909 H         1 UNK         0.0906 
     75 H75        29.9267   -1.5975    0.1159 H         1 UNK         0.3140 
     76 H76        29.0659   -3.2234   -2.1505 H         1 UNK         0.1085 
     77 H77        28.9078   -5.0545   -0.4768 H         1 UNK         0.0836 
     78 H78        29.2037   -3.9359    0.8240 H         1 UNK         0.0836 
     79 H79        32.3020   -6.1875   -1.5301 H         1 UNK         0.0731 
     80 H80        30.5915   -6.4897   -1.3850 H         1 UNK         0.0731 
     81 H81        33.1055   -4.3034   -3.0814 H         1 UNK         0.1312 
     82 H82        30.7305   -3.7797   -6.6122 H         1 UNK         0.1406 
     83 H83        29.1479   -5.9429   -3.2656 H         1 UNK         0.1631 
     84 H84        28.2458   -6.1903   -5.7136 H         1 UNK         0.0717 
     85 H85        28.6381   -4.9257   -6.8499 H         1 UNK         0.0717 
     86 H86        27.6557   -1.8680   -4.6559 H         1 UNK         0.0934 
     87 H87        28.6910   -2.4688   -5.9033 H         1 UNK         0.0934 
     88 H88        26.8260   -2.4143   -7.5593 H         1 UNK         0.0739 
     89 H89        25.1886   -1.5430   -5.2922 H         1 UNK         0.3093 
     90 H90        22.4463   -0.5310   -7.2768 H         1 UNK         0.0818 
     91 H91        21.1433   -2.2612   -6.0550 H         1 UNK         0.0819 
     92 H92        22.0832   -3.0052   -7.3367 H         1 UNK         0.0819 
     93 H93        22.6233   -3.1419   -5.6695 H         1 UNK         0.0819 
     94 H94        22.7083   -0.9685   -4.4662 H         1 UNK         0.3041 
     95 H95        24.3706    2.0520   -3.6322 H         1 UNK         0.0784 
     96 H96        21.9712    2.7167   -3.8653 H         1 UNK         0.0793 
     97 H97        21.4635    1.1854   -3.1663 H         1 UNK         0.0793 
     98 H98        22.3705    2.3472   -2.1967 H         1 UNK         0.0793 
     99 H99        23.3316   -0.0259   -2.0001 H         1 UNK         0.3024 
    100 H100       25.0299   -1.3394   -0.8541 H         1 UNK         0.1171 
    101 H101       23.4284   -2.5956   -2.3642 H         1 UNK         0.0786 
    102 H102       24.5934   -3.6960   -1.6600 H         1 UNK         0.0786 
    103 H103       24.7809   -3.1727   -3.3296 H         1 UNK         0.0786 
    104 H104       27.3202   -1.5051   -2.5271 H         1 UNK         0.2977 
    105 H105       26.8392    0.2840   -5.1799 H         1 UNK         0.3127 
    106 H106       28.9241    1.7271   -6.2935 H         1 UNK         0.0770 
    107 H107       26.5790    2.7224   -4.5899 H         1 UNK         0.0814 
    108 H108       28.1033    3.5746   -4.8070 H         1 UNK         0.0814 
    109 H109       28.0803    2.0230   -3.9825 H         1 UNK         0.0814 
    110 H110       25.6231    1.7190   -7.4120 H         1 UNK         0.2983 
    111 H111       25.6593    4.1263   -8.9464 H         1 UNK         0.0947 
    112 H112       23.7007    3.0459  -10.0996 H         1 UNK         0.0806 
    113 H113       23.5656    2.9497   -8.3529 H         1 UNK         0.0806 
    114 H114       24.0562    1.5309   -9.2780 H         1 UNK         0.0806 
    115 H115       27.3202    1.0994   -9.5233 H         1 UNK         0.3000 
    116 H116       27.9918    1.9781  -12.2963 H         1 UNK         0.0850 
    117 H117       27.5990   -0.3509  -13.1156 H         1 UNK         0.0810 
    118 H118       26.1124    0.3870  -12.5415 H         1 UNK         0.0810 
    119 H119       26.9480   -0.8026  -11.5440 H         1 UNK         0.0810 
    120 H120       28.8715   -0.0516   -9.4688 H         1 UNK         0.3040 
    121 H121       31.3571   -0.9520  -10.6852 H         1 UNK         0.0766 
    122 H122       31.6358   -2.1243   -8.5380 H         1 UNK         0.0812 
    123 H123       29.9750   -2.3307   -9.0611 H         1 UNK         0.0812 
    124 H124       30.3590   -1.1744   -7.7876 H         1 UNK         0.0812 
    125 H125       33.4449   -0.5801   -9.7538 H         1 UNK         0.3205 
    126 H126       34.1865    2.0983   -9.2919 H         1 UNK         0.0754 
    127 H127       36.4370    1.1055   -8.8236 H         1 UNK         0.0769 
    128 H128       35.7115    0.3858  -10.2497 H         1 UNK         0.0769 
    129 H129       35.7228   -0.4975   -8.7216 H         1 UNK         0.0769 
    130 H130       33.0286   -0.2449   -7.0163 H         1 UNK         0.2981 
    131 H131       34.0206    1.0049   -4.6128 H         1 UNK         0.0541 
    132 H132       31.5761    2.1395   -6.8342 H         1 UNK         0.3459 
    133 H133       30.8349    3.2202   -5.6790 H         1 UNK         0.3459 
    134 H134       31.7201   -0.9781   -5.0020 H         1 UNK         0.0612 
    135 H135       32.3367   -0.4621   -3.4559 H         1 UNK         0.0612 
    136 H136       32.8607   -2.7229   -6.5134 H         1 UNK         0.0624 
    137 H137       33.9640   -3.8976   -5.8412 H         1 UNK         0.0624 
@<TRIPOS>BOND
     1    1    2 1    
     2    1   72 1    
     3    1   73 1    
     4    1   74 1    
     5    2    3 2    
     6    2    4 am   BACKBONE|DICT|INTERRES
     7    4    5 1    
     8    4   75 1    
     9    5    6 1    
    10    5   35 1    
    11    5   76 1    
    12    6    7 1    
    13    6   77 1    
    14    6   78 1    
    15    7    8 1    
    16    8    9 1    
    17    8   79 1    
    18    8   80 1    
    19    9   10 ar   
    20    9   14 ar   
    21   10   11 ar   
    22   10   81 1    
    23   11   12 ar   
    24   11   71 1    
    25   12   13 ar   
    26   12   82 1    
    27   13   14 ar   
    28   13   15 1    
    29   14   83 1    
    30   15   16 1    
    31   15   84 1    
    32   15   85 1    
    33   16   17 1    
    34   17   18 1    
    35   17   86 1    
    36   17   87 1    
    37   18   19 1    
    38   18   37 1    
    39   18   88 1    
    40   19   20 am   BACKBONE|DICT|INTERRES
    41   19   89 1    
    42   20   21 2    
    43   20   22 1    
    44   22   23 1    
    45   22   24 1    
    46   22   90 1    
    47   23   91 1    
    48   23   92 1    
    49   23   93 1    
    50   24   25 am   BACKBONE|DICT|INTERRES
    51   24   94 1    
    52   25   26 2    
    53   25   27 1    
    54   27   28 1    
    55   27   29 1    
    56   27   95 1    
    57   28   96 1    
    58   28   97 1    
    59   28   98 1    
    60   29   30 am   BACKBONE|DICT|INTERRES
    61   29   99 1    
    62   30   31 2    
    63   30   32 1    
    64   32   33 1    
    65   32   34 1    
    66   32  100 1    
    67   33  101 1    
    68   33  102 1    
    69   33  103 1    
    70   34   35 am   BACKBONE|DICT|INTERRES
    71   34  104 1    
    72   35   36 2    
    73   37   38 2    
    74   37   39 am   BACKBONE|DICT|INTERRES
    75   39   40 1    
    76   39  105 1    
    77   40   41 1    
    78   40   42 1    
    79   40  106 1    
    80   41  107 1    
    81   41  108 1    
    82   41  109 1    
    83   42   43 2    
    84   42   44 am   BACKBONE|DICT|INTERRES
    85   44   45 1    
    86   44  110 1    
    87   45   46 1    
    88   45   47 1    
    89   45  111 1    
    90   46  112 1    
    91   46  113 1    
    92   46  114 1    
    93   47   48 2    
    94   47   49 am   BACKBONE|DICT|INTERRES
    95   49   50 1    
    96   49  115 1    
    97   50   51 1    
    98   50   52 1    
    99   50  116 1    
   100   51  117 1    
   101   51  118 1    
   102   51  119 1    
   103   52   53 2    
   104   52   54 am   BACKBONE|DICT|INTERRES
   105   54   55 1    
   106   54  120 1    
   107   55   56 1    
   108   55   57 1    
   109   55  121 1    
   110   56  122 1    
   111   56  123 1    
   112   56  124 1    
   113   57   58 2    
   114   57   59 am   BACKBONE|DICT|INTERRES
   115   59   60 1    
   116   59  125 1    
   117   60   61 1    
   118   60   62 1    
   119   60  126 1    
   120   61  127 1    
   121   61  128 1    
   122   61  129 1    
   123   62   63 2    
   124   62   64 am   BACKBONE|DICT|INTERRES
   125   64   65 1    
   126   64  130 1    
   127   65   66 1    
   128   65   69 1    
   129   65  131 1    
   130   66   67 am   BACKBONE|DICT|INTERRES
   131   66   68 2    
   132   67  132 1    
   133   67  133 1    
   134   69   70 1    
   135   69  134 1    
   136   69  135 1    
   137   70   71 1    
   138   71  136 1    
   139   71  137 1    
@<TRIPOS>SUBSTRUCTURE
     1 UNK         1 GROUP             0       ****    0 ROOT    
