@<TRIPOS>MOLECULE
3R137
137   139    1
SMALL
USER_CHARGES


@<TRIPOS>ATOM
      1 CA         30.3049   -5.4959   -1.8249 C.3       0 UNK        -0.2020 
      2 C          29.3893   -4.8183   -0.8169 C.2       0 UNK         0.4855 
      3 O          28.8048   -5.4929    0.0306 O.2       0 UNK        -0.5197 
      4 N          29.2636   -3.4874   -0.8981 N.am      1 UNK        -0.4892 
      5 CA         28.4548   -2.6629    0.0089 C.3       1 UNK         0.0835 
      6 C6         28.9460   -1.1909    0.0181 C.3       12 UNK        -0.0855 
      7 S7         28.5083   -0.2067   -1.4610 S.3       12 UNK        -0.2931 
      8 C8         30.0848   -0.0796   -2.3711 C.3       12 UNK         0.0378 
      9 C9         30.4246   -1.2603   -3.2822 C.ar      12 UNK        -0.0802 
     10 C10        31.7541   -1.4117   -3.6839 C.ar      12 UNK        -0.0944 
     11 C11        32.1292   -2.4289   -4.5617 C.ar      12 UNK        -0.0787 
     12 C12        31.1673   -3.3372   -5.0091 C.ar      12 UNK        -0.0862 
     13 C13        29.8356   -3.2206   -4.6011 C.ar      12 UNK        -0.0733 
     14 C14        29.4631   -2.1618   -3.7635 C.ar      12 UNK        -0.0832 
     15 C15        28.8262   -4.2782   -5.0281 C.3       12 UNK         0.0240 
     16 S16        28.0241   -3.8884   -6.6127 S.3       12 UNK        -0.2522 
     17 C17        26.6500   -2.8267   -6.0608 C.3       12 UNK        -0.0967 
     18 CA         26.4410   -1.5802   -6.9485 C.3       5 UNK         0.0660 
     19 N          25.1205   -0.9927   -6.7120 N.am      5 UNK        -0.4015 
     20 C          24.5932    0.0833   -7.3085 C.2       4 UNK         0.4946 
     21 O          25.1657    0.7150   -8.1979 O.2       4 UNK        -0.5353 
     22 CA         23.2260    0.5803   -6.7964 C.3       4 UNK         0.0277 
     23 CB         22.0774   -0.0051   -7.6403 C.3       4 UNK        -0.1981 
     24 N          22.9983    0.3863   -5.3508 N.am      4 UNK        -0.4209 
     25 C          22.8751   -0.7637   -4.6711 C.2       3 UNK         0.4942 
     26 O          22.8861   -1.8784   -5.1992 O.2       3 UNK        -0.5208 
     27 CA         22.7588   -0.6504   -3.1411 C.3       3 UNK         0.0250 
     28 CB         21.2828   -0.5718   -2.7192 C.3       3 UNK        -0.1990 
     29 N          23.3949   -1.7847   -2.4624 N.am      3 UNK        -0.4232 
     30 C          24.7048   -2.0659   -2.5067 C.2       2 UNK         0.4993 
     31 O          25.5397   -1.3618   -3.0819 O.2       2 UNK        -0.5286 
     32 CA         25.1386   -3.3848   -1.8446 C.3       2 UNK         0.0209 
     33 CB         24.9970   -4.5535   -2.8342 C.3       2 UNK        -0.1931 
     34 N          26.5280   -3.3167   -1.3919 N.am      2 UNK        -0.4546 
     35 C          26.9294   -2.7787   -0.2321 C.2       1 UNK         0.5154 
     36 O          26.1499   -2.3779    0.6347 O.2       1 UNK        -0.5181 
     37 C          27.5833   -0.5541   -6.7979 C.2       5 UNK         0.5014 
     38 O          28.4994   -0.5560   -7.6175 O.2       5 UNK        -0.5248 
     39 N          27.4630    0.3560   -5.8192 N.am      6 UNK        -0.4434 
     40 CA         28.3706    1.4884   -5.6037 C.3       6 UNK         0.0363 
     41 CB         27.8726    2.3053   -4.4006 C.3       6 UNK        -0.1936 
     42 C          28.5276    2.4159   -6.8253 C.2       6 UNK         0.5081 
     43 O          29.6070    2.9696   -7.0277 O.2       6 UNK        -0.5248 
     44 N          27.4580    2.5707   -7.6178 N.am      7 UNK        -0.4718 
     45 CA         27.4700    3.3317   -8.8657 C.3       7 UNK         0.0273 
     46 CB         26.0874    3.9618   -9.1024 C.3       7 UNK        -0.1935 
     47 C          27.8768    2.4427  -10.0487 C.2       7 UNK         0.5018 
     48 O          28.6946    2.8679  -10.8641 O.2       7 UNK        -0.5186 
     49 N          27.3043    1.2317  -10.1218 N.am      8 UNK        -0.4240 
     50 CA         27.5015    0.2823  -11.2212 C.3       8 UNK         0.0235 
     51 CB         26.4854   -0.8647  -11.1039 C.3       8 UNK        -0.2000 
     52 C          28.9351   -0.2664  -11.3219 C.2       8 UNK         0.4941 
     53 O          29.4793   -0.3211  -12.4255 O.2       8 UNK        -0.5273 
     54 N          29.5226   -0.6552  -10.1822 N.am      9 UNK        -0.4262 
     55 CA         30.8975   -1.1543  -10.0880 C.3       9 UNK         0.0264 
     56 CB         30.9864   -2.1799   -8.9443 C.3       9 UNK        -0.1955 
     57 C          31.9196   -0.0234   -9.8790 C.2       9 UNK         0.5031 
     58 O          33.1172   -0.2730  -10.0143 O.2       9 UNK        -0.5390 
     59 N          31.4446    1.1826   -9.5322 N.am      10 UNK        -0.4204 
     60 CA         32.1727    2.4383   -9.2885 C.3       10 UNK         0.0237 
     61 CB         32.9580    2.8799  -10.5396 C.3       10 UNK        -0.1985 
     62 C          33.0672    2.4633   -8.0316 C.2       10 UNK         0.4970 
     63 O          33.3509    3.5539   -7.5329 O.2       10 UNK        -0.4914 
     64 N          33.4999    1.2973   -7.5398 N.am      11 UNK        -0.4285 
     65 CA         34.2283    1.1160   -6.2774 C.3       11 UNK         0.1007 
     66 C          33.3958    1.4679   -5.0113 C.2       11 UNK         0.5703 
     67 N          34.0557    1.6543   -3.8750 N.am      11 UNK        -0.7361 
     68 O          32.1712    1.5626   -5.0344 O.2       11 UNK        -0.4986 
     69 C69        34.8992   -0.2850   -6.1942 C.3       12 UNK        -0.0947 
     70 S70        33.8163   -1.6977   -6.6175 S.3       12 UNK        -0.2240 
     71 C71        33.5720   -2.5477   -5.0255 C.3       12 UNK         0.0194 
     72 H72        30.9242   -4.7761   -2.3594 H         1 UNK         0.0906 
     73 H73        30.9697   -6.1946   -1.3177 H         1 UNK         0.0906 
     74 H74        29.7172   -6.0537   -2.5531 H         1 UNK         0.0906 
     75 H75        29.7654   -2.9788   -1.6147 H         1 UNK         0.3140 
     76 H76        28.6182   -3.0520    1.0168 H         1 UNK         0.1085 
     77 H77        30.0249   -1.1581    0.1773 H         1 UNK         0.0836 
     78 H78        28.5173   -0.6769    0.8804 H         1 UNK         0.0836 
     79 H79        30.8921    0.0875   -1.6565 H         1 UNK         0.0731 
     80 H80        30.0472    0.8162   -2.9913 H         1 UNK         0.0731 
     81 H81        32.5011   -0.7155   -3.3298 H         1 UNK         0.1312 
     82 H82        31.4575   -4.1396   -5.6739 H         1 UNK         0.1406 
     83 H83        28.4273   -2.0497   -3.4762 H         1 UNK         0.1631 
     84 H84        28.0738   -4.4262   -4.2527 H         1 UNK         0.0717 
     85 H85        29.3323   -5.2393   -5.1320 H         1 UNK         0.0717 
     86 H86        25.7516   -3.4462   -6.0754 H         1 UNK         0.0934 
     87 H87        26.7888   -2.5342   -5.0211 H         1 UNK         0.0934 
     88 H88        26.4390   -1.9090   -7.9880 H         1 UNK         0.0739 
     89 H89        24.5307   -1.4608   -6.0291 H         1 UNK         0.3093 
     90 H90        23.2216    1.6607   -6.9498 H         1 UNK         0.0818 
     91 H91        21.1124    0.3935   -7.3273 H         1 UNK         0.0819 
     92 H92        22.2050    0.2458   -8.6943 H         1 UNK         0.0819 
     93 H93        22.0294   -1.0922   -7.5724 H         1 UNK         0.0819 
     94 H94        22.9893    1.2421   -4.8120 H         1 UNK         0.3041 
     95 H95        23.2678    0.2597   -2.8162 H         1 UNK         0.0784 
     96 H96        20.7869    0.2814   -3.1843 H         1 UNK         0.0793 
     97 H97        20.7317   -1.4669   -3.0111 H         1 UNK         0.0793 
     98 H98        21.1833   -0.4525   -1.6400 H         1 UNK         0.0793 
     99 H99        22.7726   -2.4392   -2.0111 H         1 UNK         0.3024 
    100 H100       24.4932   -3.5742   -0.9835 H         1 UNK         0.1171 
    101 H101       25.2719   -5.5010   -2.3700 H         1 UNK         0.0786 
    102 H102       23.9674   -4.6510   -3.1816 H         1 UNK         0.0786 
    103 H103       25.6237   -4.4184   -3.7154 H         1 UNK         0.0786 
    104 H104       27.2385   -3.5963   -2.0488 H         1 UNK         0.2977 
    105 H105       26.6849    0.2699   -5.1804 H         1 UNK         0.3127 
    106 H106       29.3550    1.0766   -5.3707 H         1 UNK         0.0770 
    107 H107       26.9164    2.7874   -4.6080 H         1 UNK         0.0814 
    108 H108       28.5856    3.0899   -4.1440 H         1 UNK         0.0814 
    109 H109       27.7433    1.6833   -3.5168 H         1 UNK         0.0814 
    110 H110       26.6222    2.0317   -7.4253 H         1 UNK         0.2983 
    111 H111       28.1968    4.1443   -8.7924 H         1 UNK         0.0947 
    112 H112       26.0820    4.5523  -10.0196 H         1 UNK         0.0806 
    113 H113       25.8131    4.6302   -8.2861 H         1 UNK         0.0806 
    114 H114       25.3036    3.2095   -9.1960 H         1 UNK         0.0806 
    115 H115       26.6212    0.9781   -9.4121 H         1 UNK         0.3000 
    116 H116       27.2924    0.8181  -12.1497 H         1 UNK         0.0850 
    117 H117       26.5546   -1.5341  -11.9624 H         1 UNK         0.0810 
    118 H118       25.4625   -0.4894  -11.0658 H         1 UNK         0.0810 
    119 H119       26.6562   -1.4647  -10.2113 H         1 UNK         0.0810 
    120 H120       29.0134   -0.5857   -9.2991 H         1 UNK         0.3040 
    121 H121       31.1592   -1.6660  -11.0165 H         1 UNK         0.0766 
    122 H122       30.8435   -1.7154   -7.9674 H         1 UNK         0.0812 
    123 H123       31.9642   -2.6624   -8.9312 H         1 UNK         0.0812 
    124 H124       30.2386   -2.9657   -9.0515 H         1 UNK         0.0812 
    125 H125       30.4430    1.2513   -9.4178 H         1 UNK         0.3205 
    126 H126       31.3965    3.1854   -9.1155 H         1 UNK         0.0754 
    127 H127       33.3931    3.8698  -10.3963 H         1 UNK         0.0769 
    128 H128       32.3095    2.9349  -11.4142 H         1 UNK         0.0769 
    129 H129       33.7771    2.1980  -10.7696 H         1 UNK         0.0769 
    130 H130       33.2660    0.4499   -8.0410 H         1 UNK         0.2981 
    131 H131       35.0385    1.8475   -6.2976 H         1 UNK         0.0541 
    132 H132       35.0605    1.5865   -3.8360 H         1 UNK         0.3459 
    133 H133       33.5381    1.8917   -3.0442 H         1 UNK         0.3459 
    134 H134       35.3667   -0.4421   -5.2214 H         1 UNK         0.0612 
    135 H135       35.7249   -0.3123   -6.9066 H         1 UNK         0.0612 
    136 H136       33.8323   -3.5998   -5.1494 H         1 UNK         0.0624 
    137 H137       34.2496   -2.1580   -4.2652 H         1 UNK         0.0624 
@<TRIPOS>BOND
     1    1    2 1    
     2    1   72 1    
     3    1   73 1    
     4    1   74 1    
     5    2    3 2    
     6    2    4 am   BACKBONE|DICT|INTERRES
     7    4    5 1    
     8    4   75 1    
     9    5    6 1    
    10    5   35 1    
    11    5   76 1    
    12    6    7 1    
    13    6   77 1    
    14    6   78 1    
    15    7    8 1    
    16    8    9 1    
    17    8   79 1    
    18    8   80 1    
    19    9   10 ar   
    20    9   14 ar   
    21   10   11 ar   
    22   10   81 1    
    23   11   12 ar   
    24   11   71 1    
    25   12   13 ar   
    26   12   82 1    
    27   13   14 ar   
    28   13   15 1    
    29   14   83 1    
    30   15   16 1    
    31   15   84 1    
    32   15   85 1    
    33   16   17 1    
    34   17   18 1    
    35   17   86 1    
    36   17   87 1    
    37   18   19 1    
    38   18   37 1    
    39   18   88 1    
    40   19   20 am   BACKBONE|DICT|INTERRES
    41   19   89 1    
    42   20   21 2    
    43   20   22 1    
    44   22   23 1    
    45   22   24 1    
    46   22   90 1    
    47   23   91 1    
    48   23   92 1    
    49   23   93 1    
    50   24   25 am   BACKBONE|DICT|INTERRES
    51   24   94 1    
    52   25   26 2    
    53   25   27 1    
    54   27   28 1    
    55   27   29 1    
    56   27   95 1    
    57   28   96 1    
    58   28   97 1    
    59   28   98 1    
    60   29   30 am   BACKBONE|DICT|INTERRES
    61   29   99 1    
    62   30   31 2    
    63   30   32 1    
    64   32   33 1    
    65   32   34 1    
    66   32  100 1    
    67   33  101 1    
    68   33  102 1    
    69   33  103 1    
    70   34   35 am   BACKBONE|DICT|INTERRES
    71   34  104 1    
    72   35   36 2    
    73   37   38 2    
    74   37   39 am   BACKBONE|DICT|INTERRES
    75   39   40 1    
    76   39  105 1    
    77   40   41 1    
    78   40   42 1    
    79   40  106 1    
    80   41  107 1    
    81   41  108 1    
    82   41  109 1    
    83   42   43 2    
    84   42   44 am   BACKBONE|DICT|INTERRES
    85   44   45 1    
    86   44  110 1    
    87   45   46 1    
    88   45   47 1    
    89   45  111 1    
    90   46  112 1    
    91   46  113 1    
    92   46  114 1    
    93   47   48 2    
    94   47   49 am   BACKBONE|DICT|INTERRES
    95   49   50 1    
    96   49  115 1    
    97   50   51 1    
    98   50   52 1    
    99   50  116 1    
   100   51  117 1    
   101   51  118 1    
   102   51  119 1    
   103   52   53 2    
   104   52   54 am   BACKBONE|DICT|INTERRES
   105   54   55 1    
   106   54  120 1    
   107   55   56 1    
   108   55   57 1    
   109   55  121 1    
   110   56  122 1    
   111   56  123 1    
   112   56  124 1    
   113   57   58 2    
   114   57   59 am   BACKBONE|DICT|INTERRES
   115   59   60 1    
   116   59  125 1    
   117   60   61 1    
   118   60   62 1    
   119   60  126 1    
   120   61  127 1    
   121   61  128 1    
   122   61  129 1    
   123   62   63 2    
   124   62   64 am   BACKBONE|DICT|INTERRES
   125   64   65 1    
   126   64  130 1    
   127   65   66 1    
   128   65   69 1    
   129   65  131 1    
   130   66   67 am   BACKBONE|DICT|INTERRES
   131   66   68 2    
   132   67  132 1    
   133   67  133 1    
   134   69   70 1    
   135   69  134 1    
   136   69  135 1    
   137   70   71 1    
   138   71  136 1    
   139   71  137 1    
@<TRIPOS>SUBSTRUCTURE
     1 UNK         1 GROUP             0       ****    0 ROOT    
