@<TRIPOS>MOLECULE
3R137
137   139    1
SMALL
USER_CHARGES


@<TRIPOS>ATOM
      1 CA         26.1168   -6.3321   -3.3454 C.3       0 UNK        -0.2020 
      2 C          25.9989   -5.8045   -1.9235 C.2       0 UNK         0.4855 
      3 O          25.3197   -6.4130   -1.0969 O.2       0 UNK        -0.5197 
      4 N          26.6576   -4.6750   -1.6317 N.am      1 UNK        -0.4892 
      5 CA         26.6664   -4.0277   -0.3123 C.3       1 UNK         0.0835 
      6 C6         27.9221   -3.1377   -0.1272 C.3       12 UNK        -0.0855 
      7 S7         28.0558   -1.7432   -1.3078 S.3       12 UNK        -0.2931 
      8 C8         29.8703   -1.5282   -1.3848 C.3       12 UNK         0.0378 
      9 C9         30.5102   -2.0815   -2.6577 C.ar      12 UNK        -0.0802 
     10 C10        31.6086   -1.4184   -3.2140 C.ar      12 UNK        -0.0944 
     11 C11        32.2193   -1.8928   -4.3790 C.ar      12 UNK        -0.0787 
     12 C12        31.7114   -3.0384   -5.0022 C.ar      12 UNK        -0.0862 
     13 C13        30.6120   -3.7120   -4.4607 C.ar      12 UNK        -0.0733 
     14 C14        30.0367   -3.2434   -3.2765 C.ar      12 UNK        -0.0832 
     15 C15        30.0554   -4.9588   -5.1368 C.3       12 UNK         0.0240 
     16 S16        29.0311   -4.5785   -6.5987 S.3       12 UNK        -0.2522 
     17 C17        27.6176   -3.6520   -5.8974 C.3       12 UNK        -0.0967 
     18 CA         27.2154   -2.4124   -6.7373 C.3       5 UNK         0.0660 
     19 N          25.9589   -1.8205   -6.2628 N.am      5 UNK        -0.4015 
     20 C          25.2695   -0.8698   -6.9120 C.2       4 UNK         0.4946 
     21 O          25.5890   -0.4174   -8.0098 O.2       4 UNK        -0.5353 
     22 CA         24.0401   -0.2866   -6.1963 C.3       4 UNK         0.0277 
     23 CB         22.8141   -1.1914   -6.3968 C.3       4 UNK        -0.1981 
     24 N          24.2479   -0.0510   -4.7648 N.am      4 UNK        -0.4209 
     25 C          25.1997    0.7237   -4.2284 C.2       3 UNK         0.4942 
     26 O          26.0349    1.3271   -4.9012 O.2       3 UNK        -0.5208 
     27 CA         25.2667    0.8325   -2.6922 C.3       3 UNK         0.0250 
     28 CB         24.5763    2.1210   -2.2056 C.3       3 UNK        -0.1990 
     29 N          24.7903   -0.3461   -1.9466 N.am      3 UNK        -0.4232 
     30 C          23.5504   -0.8568   -1.8653 C.2       2 UNK         0.4993 
     31 O          22.5857   -0.3958   -2.4764 O.2       2 UNK        -0.5286 
     32 CA         23.3746   -2.1254   -1.0109 C.3       2 UNK         0.0209 
     33 CB         22.1809   -2.9827   -1.4743 C.3       2 UNK        -0.1931 
     34 N          24.5886   -2.9424   -1.0535 N.am      2 UNK        -0.4546 
     35 C          25.3675   -3.2475   -0.0079 C.2       1 UNK         0.5154 
     36 O          25.1136   -2.9206    1.1524 O.2       1 UNK        -0.5181 
     37 C          28.3392   -1.3580   -6.8216 C.2       5 UNK         0.5014 
     38 O          29.0089   -1.2750   -7.8517 O.2       5 UNK        -0.5248 
     39 N          28.4798   -0.5398   -5.7668 N.am      6 UNK        -0.4434 
     40 CA         29.4563    0.5487   -5.6787 C.3       6 UNK         0.0363 
     41 CB         29.3928    1.1917   -4.2836 C.3       6 UNK        -0.1936 
     42 C          29.2605    1.6112   -6.7712 C.2       6 UNK         0.5081 
     43 O          30.2443    2.0910   -7.3373 O.2       6 UNK        -0.5248 
     44 N          27.9938    1.9393   -7.0570 N.am      7 UNK        -0.4718 
     45 CA         27.5904    2.8316   -8.1406 C.3       7 UNK         0.0273 
     46 CB         26.1138    3.2211   -7.9643 C.3       7 UNK        -0.1935 
     47 C          27.8411    2.2172   -9.5275 C.2       7 UNK         0.5018 
     48 O          28.4598    2.8711  -10.3670 O.2       7 UNK        -0.5186 
     49 N          27.3726    0.9782   -9.7424 N.am      8 UNK        -0.4240 
     50 CA         27.4666    0.2578  -11.0168 C.3       8 UNK         0.0235 
     51 CB         26.6418   -1.0376  -10.9498 C.3       8 UNK        -0.2000 
     52 C          28.9081   -0.0475  -11.4500 C.2       8 UNK         0.4941 
     53 O          29.2352    0.1403  -12.6225 O.2       8 UNK        -0.5273 
     54 N          29.7458   -0.4950  -10.5051 N.am      9 UNK        -0.4262 
     55 CA         31.1661   -0.7719  -10.7360 C.3       9 UNK         0.0264 
     56 CB         31.6408   -1.8337   -9.7315 C.3       9 UNK        -0.1955 
     57 C          32.0509    0.4892  -10.6826 C.2       9 UNK         0.5031 
     58 O          33.2309    0.3935  -11.0241 O.2       9 UNK        -0.5390 
     59 N          31.4782    1.6338  -10.2741 N.am      10 UNK        -0.4204 
     60 CA         32.1080    2.9518  -10.1262 C.3       10 UNK         0.0237 
     61 CB         32.4900    3.5339  -11.5038 C.3       10 UNK        -0.1985 
     62 C          33.2804    2.9290   -9.1271 C.2       10 UNK         0.4970 
     63 O          34.3807    3.3854   -9.4457 O.2       10 UNK        -0.4914 
     64 N          33.0116    2.3787   -7.9404 N.am      11 UNK        -0.4285 
     65 CA         33.9739    2.1705   -6.8488 C.3       11 UNK         0.1007 
     66 C          33.4802    2.6985   -5.4722 C.2       11 UNK         0.5703 
     67 N          32.2819    3.2606   -5.3637 N.am      11 UNK        -0.7361 
     68 O          34.2128    2.6283   -4.4882 O.2       11 UNK        -0.4986 
     69 C69        34.4681    0.6986   -6.7999 C.3       12 UNK        -0.0947 
     70 S70        33.1140   -0.5095   -6.6068 S.3       12 UNK        -0.2240 
     71 C71        33.4354   -1.1718   -4.9462 C.3       12 UNK         0.0194 
     72 H72        25.1982   -6.1359   -3.8979 H         1 UNK         0.0906 
     73 H73        26.9471   -5.8742   -3.8812 H         1 UNK         0.0906 
     74 H74        26.2829   -7.4092   -3.3336 H         1 UNK         0.0906 
     75 H75        27.1885   -4.2020   -2.3464 H         1 UNK         0.3140 
     76 H76        26.7203   -4.8166    0.4420 H         1 UNK         0.1085 
     77 H77        27.9543   -2.7325    0.8863 H         1 UNK         0.0836 
     78 H78        28.8107   -3.7649   -0.2160 H         1 UNK         0.0836 
     79 H79        30.0740   -0.4593   -1.3057 H         1 UNK         0.0731 
     80 H80        30.3464   -1.9865   -0.5172 H         1 UNK         0.0731 
     81 H81        31.9928   -0.5277   -2.7354 H         1 UNK         0.1312 
     82 H82        32.1698   -3.4022   -5.9118 H         1 UNK         0.1406 
     83 H83        29.2100   -3.7828   -2.8416 H         1 UNK         0.1631 
     84 H84        29.4692   -5.5523   -4.4338 H         1 UNK         0.0717 
     85 H85        30.8839   -5.5960   -5.4495 H         1 UNK         0.0717 
     86 H86        26.7763   -4.3448   -5.8491 H         1 UNK         0.0934 
     87 H87        27.8247   -3.3614   -4.8685 H         1 UNK         0.0934 
     88 H88        27.0295   -2.7562   -7.7575 H         1 UNK         0.0739 
     89 H89        25.6146   -2.1284   -5.3665 H         1 UNK         0.3093 
     90 H90        23.8275    0.6817   -6.6544 H         1 UNK         0.0818 
     91 H91        21.9140   -0.7355   -5.9838 H         1 UNK         0.0819 
     92 H92        22.6285   -1.3678   -7.4574 H         1 UNK         0.0819 
     93 H93        22.9443   -2.1643   -5.9212 H         1 UNK         0.0819 
     94 H94        23.5525   -0.4238   -4.1243 H         1 UNK         0.3041 
     95 H95        26.3264    0.9197   -2.4456 H         1 UNK         0.0784 
     96 H96        25.0092    2.9990   -2.6872 H         1 UNK         0.0793 
     97 H97        23.5093    2.1232   -2.4305 H         1 UNK         0.0793 
     98 H98        24.6933    2.2514   -1.1299 H         1 UNK         0.0793 
     99 H99        25.5132   -0.8340   -1.4339 H         1 UNK         0.3024 
    100 H100       23.1758   -1.7858    0.0082 H         1 UNK         0.1171 
    101 H101       22.2898   -3.2996   -2.5122 H         1 UNK         0.0786 
    102 H102       21.2443   -2.4287   -1.3970 H         1 UNK         0.0786 
    103 H103       22.0759   -3.8775   -0.8605 H         1 UNK         0.0786 
    104 H104       24.8854   -3.2619   -1.9642 H         1 UNK         0.2977 
    105 H105       27.8512   -0.6403   -4.9851 H         1 UNK         0.3127 
    106 H106       30.4431    0.1054   -5.8090 H         1 UNK         0.0770 
    107 H107       29.4168    0.4429   -3.4951 H         1 UNK         0.0814 
    108 H108       28.4898    1.7862   -4.1457 H         1 UNK         0.0814 
    109 H109       30.2424    1.8545   -4.1244 H         1 UNK         0.0814 
    110 H110       27.2542    1.5356   -6.4892 H         1 UNK         0.2983 
    111 H111       28.1916    3.7407   -8.0678 H         1 UNK         0.0947 
    112 H112       25.7936    3.9049   -8.7515 H         1 UNK         0.0806 
    113 H113       25.9492    3.7229   -7.0105 H         1 UNK         0.0806 
    114 H114       25.4568    2.3515   -7.9987 H         1 UNK         0.0806 
    115 H115       26.8535    0.5122   -8.9997 H         1 UNK         0.3000 
    116 H116       27.0253    0.8977  -11.7839 H         1 UNK         0.0850 
    117 H117       26.6956   -1.5870  -11.8907 H         1 UNK         0.0810 
    118 H118       25.5896   -0.8271  -10.7580 H         1 UNK         0.0810 
    119 H119       26.9989   -1.7012  -10.1612 H         1 UNK         0.0810 
    120 H120       29.3970   -0.6614   -9.5607 H         1 UNK         0.3040 
    121 H121       31.2834   -1.1938  -11.7365 H         1 UNK         0.0766 
    122 H122       32.7034   -2.0488   -9.8513 H         1 UNK         0.0812 
    123 H123       31.1011   -2.7715   -9.8629 H         1 UNK         0.0812 
    124 H124       31.4862   -1.5072   -8.7047 H         1 UNK         0.0812 
    125 H125       30.5021    1.5952  -10.0108 H         1 UNK         0.3205 
    126 H126       31.3483    3.6043   -9.6928 H         1 UNK         0.0754 
    127 H127       32.8626    4.5543  -11.4065 H         1 UNK         0.0769 
    128 H128       31.6283    3.5659  -12.1708 H         1 UNK         0.0769 
    129 H129       33.2698    2.9477  -11.9912 H         1 UNK         0.0769 
    130 H130       32.0619    2.0637   -7.7543 H         1 UNK         0.2981 
    131 H131       34.8527    2.7849   -7.0509 H         1 UNK         0.0541 
    132 H132       31.6520    3.2886   -6.1526 H         1 UNK         0.3459 
    133 H133       31.9916    3.6237   -4.4706 H         1 UNK         0.3459 
    134 H134       35.2108    0.5616   -6.0121 H         1 UNK         0.0612 
    135 H135       34.9844    0.4622   -7.7314 H         1 UNK         0.0612 
    136 H136       34.2802   -1.8602   -4.9911 H         1 UNK         0.0624 
    137 H137       33.7330   -0.3536   -4.2884 H         1 UNK         0.0624 
@<TRIPOS>BOND
     1    1    2 1    
     2    1   72 1    
     3    1   73 1    
     4    1   74 1    
     5    2    3 2    
     6    2    4 am   BACKBONE|DICT|INTERRES
     7    4    5 1    
     8    4   75 1    
     9    5    6 1    
    10    5   35 1    
    11    5   76 1    
    12    6    7 1    
    13    6   77 1    
    14    6   78 1    
    15    7    8 1    
    16    8    9 1    
    17    8   79 1    
    18    8   80 1    
    19    9   10 ar   
    20    9   14 ar   
    21   10   11 ar   
    22   10   81 1    
    23   11   12 ar   
    24   11   71 1    
    25   12   13 ar   
    26   12   82 1    
    27   13   14 ar   
    28   13   15 1    
    29   14   83 1    
    30   15   16 1    
    31   15   84 1    
    32   15   85 1    
    33   16   17 1    
    34   17   18 1    
    35   17   86 1    
    36   17   87 1    
    37   18   19 1    
    38   18   37 1    
    39   18   88 1    
    40   19   20 am   BACKBONE|DICT|INTERRES
    41   19   89 1    
    42   20   21 2    
    43   20   22 1    
    44   22   23 1    
    45   22   24 1    
    46   22   90 1    
    47   23   91 1    
    48   23   92 1    
    49   23   93 1    
    50   24   25 am   BACKBONE|DICT|INTERRES
    51   24   94 1    
    52   25   26 2    
    53   25   27 1    
    54   27   28 1    
    55   27   29 1    
    56   27   95 1    
    57   28   96 1    
    58   28   97 1    
    59   28   98 1    
    60   29   30 am   BACKBONE|DICT|INTERRES
    61   29   99 1    
    62   30   31 2    
    63   30   32 1    
    64   32   33 1    
    65   32   34 1    
    66   32  100 1    
    67   33  101 1    
    68   33  102 1    
    69   33  103 1    
    70   34   35 am   BACKBONE|DICT|INTERRES
    71   34  104 1    
    72   35   36 2    
    73   37   38 2    
    74   37   39 am   BACKBONE|DICT|INTERRES
    75   39   40 1    
    76   39  105 1    
    77   40   41 1    
    78   40   42 1    
    79   40  106 1    
    80   41  107 1    
    81   41  108 1    
    82   41  109 1    
    83   42   43 2    
    84   42   44 am   BACKBONE|DICT|INTERRES
    85   44   45 1    
    86   44  110 1    
    87   45   46 1    
    88   45   47 1    
    89   45  111 1    
    90   46  112 1    
    91   46  113 1    
    92   46  114 1    
    93   47   48 2    
    94   47   49 am   BACKBONE|DICT|INTERRES
    95   49   50 1    
    96   49  115 1    
    97   50   51 1    
    98   50   52 1    
    99   50  116 1    
   100   51  117 1    
   101   51  118 1    
   102   51  119 1    
   103   52   53 2    
   104   52   54 am   BACKBONE|DICT|INTERRES
   105   54   55 1    
   106   54  120 1    
   107   55   56 1    
   108   55   57 1    
   109   55  121 1    
   110   56  122 1    
   111   56  123 1    
   112   56  124 1    
   113   57   58 2    
   114   57   59 am   BACKBONE|DICT|INTERRES
   115   59   60 1    
   116   59  125 1    
   117   60   61 1    
   118   60   62 1    
   119   60  126 1    
   120   61  127 1    
   121   61  128 1    
   122   61  129 1    
   123   62   63 2    
   124   62   64 am   BACKBONE|DICT|INTERRES
   125   64   65 1    
   126   64  130 1    
   127   65   66 1    
   128   65   69 1    
   129   65  131 1    
   130   66   67 am   BACKBONE|DICT|INTERRES
   131   66   68 2    
   132   67  132 1    
   133   67  133 1    
   134   69   70 1    
   135   69  134 1    
   136   69  135 1    
   137   70   71 1    
   138   71  136 1    
   139   71  137 1    
@<TRIPOS>SUBSTRUCTURE
     1 UNK         1 GROUP             0       ****    0 ROOT    
