@<TRIPOS>MOLECULE
3R137
137   139    1
SMALL
USER_CHARGES


@<TRIPOS>ATOM
      1 CA         26.2069   -7.3443   -0.3943 C.3       0 UNK        -0.2020 
      2 C          27.1383   -6.1660   -0.1514 C.2       0 UNK         0.4855 
      3 O          28.1562   -6.3196    0.5239 O.2       0 UNK        -0.5197 
      4 N          26.7964   -4.9931   -0.6926 N.am      1 UNK        -0.4892 
      5 CA         27.5212   -3.7331   -0.5319 C.3       1 UNK         0.0835 
      6 C6         28.8486   -3.6833   -1.3429 C.3       12 UNK        -0.0855 
      7 S7         30.1004   -2.6301   -0.5322 S.3       12 UNK        -0.2931 
      8 C8         31.5417   -2.8749   -1.6166 C.3       12 UNK         0.0378 
      9 C9         31.3510   -2.1702   -2.9497 C.ar      12 UNK        -0.0802 
     10 C10        31.5989   -0.7989   -3.0595 C.ar      12 UNK        -0.0944 
     11 C11        31.3936   -0.1346   -4.2718 C.ar      12 UNK        -0.0787 
     12 C12        30.9061   -0.8526   -5.3694 C.ar      12 UNK        -0.0862 
     13 C13        30.6912   -2.2314   -5.2837 C.ar      12 UNK        -0.0733 
     14 C14        30.9236   -2.8860   -4.0710 C.ar      12 UNK        -0.0832 
     15 C15        30.2305   -3.0116   -6.5088 C.3       12 UNK         0.0240 
     16 S16        28.7290   -4.0030   -6.2181 S.3       12 UNK        -0.2522 
     17 C17        27.5517   -2.7684   -5.5779 C.3       12 UNK        -0.0967 
     18 CA         26.9584   -1.8588   -6.6880 C.3       5 UNK         0.0660 
     19 N          25.5070   -1.7174   -6.5644 N.am      5 UNK        -0.4015 
     20 C          24.7098   -1.2217   -7.5213 C.2       4 UNK         0.4946 
     21 O          25.1119   -0.8846   -8.6345 O.2       4 UNK        -0.5353 
     22 CA         23.2200   -1.0389   -7.1797 C.3       4 UNK         0.0277 
     23 CB         22.4072   -2.2461   -7.6733 C.3       4 UNK        -0.1981 
     24 N          22.9581   -0.8272   -5.7538 N.am      4 UNK        -0.4209 
     25 C          23.4001    0.2108   -5.0294 C.2       3 UNK         0.4942 
     26 O          24.0748    1.1287   -5.4989 O.2       3 UNK        -0.5208 
     27 CA         23.0591    0.2158   -3.5242 C.3       3 UNK         0.0250 
     28 CB         22.2256   -1.0029   -3.0646 C.3       3 UNK        -0.1990 
     29 N          24.2368    0.3471   -2.6550 N.am      3 UNK        -0.4232 
     30 C          25.3780   -0.3584   -2.7042 C.2       2 UNK         0.4993 
     31 O          25.6706   -1.1291   -3.6219 O.2       2 UNK        -0.5286 
     32 CA         26.3776   -0.1620   -1.5415 C.3       2 UNK         0.0209 
     33 CB         25.7530    0.4705   -0.2765 C.3       2 UNK        -0.1931 
     34 N          27.0851   -1.4007   -1.1878 N.am      2 UNK        -0.4546 
     35 C          26.5446   -2.5762   -0.8324 C.2       1 UNK         0.5154 
     36 O          25.3295   -2.7728   -0.7291 O.2       1 UNK        -0.5181 
     37 C          27.6321   -0.4735   -6.7166 C.2       5 UNK         0.5014 
     38 O          28.4682   -0.2164   -7.5835 O.2       5 UNK        -0.5248 
     39 N          27.2189    0.4139   -5.8004 N.am      6 UNK        -0.4434 
     40 CA         27.6614    1.8099   -5.7542 C.3       6 UNK         0.0363 
     41 CB         27.2482    2.4525   -4.4222 C.3       6 UNK        -0.1936 
     42 C          27.1582    2.6412   -6.9466 C.2       6 UNK         0.5081 
     43 O          27.8653    3.5514   -7.3758 O.2       6 UNK        -0.5248 
     44 N          25.9729    2.3067   -7.4785 N.am      7 UNK        -0.4718 
     45 CA         25.4329    2.8870   -8.7123 C.3       7 UNK         0.0273 
     46 CB         23.9518    2.5108   -8.8701 C.3       7 UNK        -0.1935 
     47 C          26.2407    2.4758   -9.9571 C.2       7 UNK         0.5018 
     48 O          26.4861    3.3220  -10.8177 O.2       7 UNK        -0.5186 
     49 N          26.6610    1.2017  -10.0208 N.am      8 UNK        -0.4240 
     50 CA         27.5875    0.6816  -11.0338 C.3       8 UNK         0.0235 
     51 CB         27.6211   -0.8542  -10.9690 C.3       8 UNK        -0.2000 
     52 C          29.0046    1.2675  -10.8908 C.2       8 UNK         0.4941 
     53 O          29.6566    1.5226  -11.9039 O.2       8 UNK        -0.5273 
     54 N          29.4272    1.4951   -9.6385 N.am      9 UNK        -0.4262 
     55 CA         30.6433    2.1914   -9.2090 C.3       9 UNK         0.0264 
     56 CB         30.6175    3.6696   -9.6549 C.3       9 UNK        -0.1955 
     57 C          31.9434    1.4669   -9.6026 C.2       9 UNK         0.5031 
     58 O          32.9187    2.1199   -9.9803 O.2       9 UNK        -0.5390 
     59 N          31.9423    0.1301   -9.4943 N.am      10 UNK        -0.4204 
     60 CA         33.1307   -0.7102   -9.6724 C.3       10 UNK         0.0237 
     61 CB         32.7131   -2.1832   -9.8337 C.3       10 UNK        -0.1985 
     62 C          34.1218   -0.5148   -8.5112 C.2       10 UNK         0.4970 
     63 O          35.2370   -0.0424   -8.7320 O.2       10 UNK        -0.4914 
     64 N          33.6628   -0.8499   -7.2981 N.am      11 UNK        -0.4285 
     65 CA         34.3093   -0.5867   -5.9993 C.3       11 UNK         0.1007 
     66 C          35.7040   -1.2508   -5.7885 C.2       11 UNK         0.5703 
     67 N          36.0525   -2.2952   -6.5306 N.am      11 UNK        -0.7361 
     68 O          36.4706   -0.8404   -4.9198 O.2       11 UNK        -0.4986 
     69 C69        34.2797    0.9207   -5.5958 C.3       12 UNK        -0.0947 
     70 S70        32.6795    1.7641   -5.8828 S.3       12 UNK        -0.2240 
     71 C71        31.7153    1.3518   -4.3883 C.3       12 UNK         0.0194 
     72 H72        25.8335   -7.7294    0.5542 H         1 UNK         0.0906 
     73 H73        26.7419   -8.1468   -0.9012 H         1 UNK         0.0906 
     74 H74        25.3502   -7.0676   -1.0087 H         1 UNK         0.0906 
     75 H75        25.9101   -4.8886   -1.1725 H         1 UNK         0.3140 
     76 H76        27.7563   -3.6466    0.5316 H         1 UNK         0.1085 
     77 H77        29.2823   -4.6811   -1.4233 H         1 UNK         0.0836 
     78 H78        28.6775   -3.3559   -2.3702 H         1 UNK         0.0836 
     79 H79        32.4299   -2.4820   -1.1193 H         1 UNK         0.0731 
     80 H80        31.7194   -3.9420   -1.7599 H         1 UNK         0.0731 
     81 H81        31.9506   -0.2504   -2.1962 H         1 UNK         0.1312 
     82 H82        30.7290   -0.3360   -6.3021 H         1 UNK         0.1406 
     83 H83        30.7493   -3.9510   -3.9965 H         1 UNK         0.1631 
     84 H84        30.0505   -2.3459   -7.3533 H         1 UNK         0.0717 
     85 H85        31.0331   -3.6825   -6.8175 H         1 UNK         0.0717 
     86 H86        26.7583   -3.3426   -5.0964 H         1 UNK         0.0934 
     87 H87        28.0056   -2.2001   -4.7630 H         1 UNK         0.0934 
     88 H88        27.1408   -2.3224   -7.6603 H         1 UNK         0.0739 
     89 H89        25.1195   -1.8929   -5.6456 H         1 UNK         0.3093 
     90 H90        22.8669   -0.1535   -7.7101 H         1 UNK         0.0818 
     91 H91        21.3380   -2.0940   -7.5240 H         1 UNK         0.0819 
     92 H92        22.5622   -2.4094   -8.7410 H         1 UNK         0.0819 
     93 H93        22.6925   -3.1647   -7.1589 H         1 UNK         0.0819 
     94 H94        22.4162   -1.5371   -5.2824 H         1 UNK         0.3041 
     95 H95        22.4552    1.1097   -3.3617 H         1 UNK         0.0784 
     96 H96        21.2885   -1.0826   -3.6175 H         1 UNK         0.0793 
     97 H97        22.7724   -1.9399   -3.1814 H         1 UNK         0.0793 
     98 H98        21.9588   -0.9148   -2.0112 H         1 UNK         0.0793 
     99 H99        24.1281    0.9927   -1.8859 H         1 UNK         0.3024 
    100 H100       27.1410    0.5222   -1.9106 H         1 UNK         0.1171 
    101 H101       26.4878    0.5484    0.5251 H         1 UNK         0.0786 
    102 H102       25.3931    1.4820   -0.4681 H         1 UNK         0.0786 
    103 H103       24.9161   -0.1181    0.1020 H         1 UNK         0.0786 
    104 H104       28.0946   -1.3643   -1.2559 H         1 UNK         0.2977 
    105 H105       26.5141    0.1224   -5.1323 H         1 UNK         0.3127 
    106 H106       28.7523    1.8131   -5.8038 H         1 UNK         0.0770 
    107 H107       26.1727    2.3869   -4.2547 H         1 UNK         0.0814 
    108 H108       27.5174    3.5095   -4.3995 H         1 UNK         0.0814 
    109 H109       27.7580    1.9781   -3.5855 H         1 UNK         0.0814 
    110 H110       25.4062    1.6153   -6.9987 H         1 UNK         0.2983 
    111 H111       25.4961    3.9736   -8.6200 H         1 UNK         0.0947 
    112 H112       23.5007    3.0630   -9.6955 H         1 UNK         0.0806 
    113 H113       23.3804    2.7440   -7.9713 H         1 UNK         0.0806 
    114 H114       23.8251    1.4513   -9.0875 H         1 UNK         0.0806 
    115 H115       26.3392    0.5460   -9.3149 H         1 UNK         0.3000 
    116 H116       27.2073    0.9725  -12.0154 H         1 UNK         0.0850 
    117 H117       26.6303   -1.2782  -11.1335 H         1 UNK         0.0810 
    118 H118       27.9796   -1.2137  -10.0045 H         1 UNK         0.0810 
    119 H119       28.2810   -1.2624  -11.7356 H         1 UNK         0.0810 
    120 H120       28.8491    1.1330   -8.8838 H         1 UNK         0.3040 
    121 H121       30.6137    2.1839   -8.1185 H         1 UNK         0.0766 
    122 H122       29.6920    4.1589   -9.3515 H         1 UNK         0.0812 
    123 H123       30.7094    3.7680  -10.7369 H         1 UNK         0.0812 
    124 H124       31.4400    4.2272   -9.2055 H         1 UNK         0.0812 
    125 H125       31.0873   -0.3220   -9.2045 H         1 UNK         0.3205 
    126 H126       33.6325   -0.4028  -10.5927 H         1 UNK         0.0754 
    127 H127       32.1465   -2.5519   -8.9787 H         1 UNK         0.0769 
    128 H128       33.5876   -2.8252   -9.9481 H         1 UNK         0.0769 
    129 H129       32.0967   -2.3202  -10.7226 H         1 UNK         0.0769 
    130 H130       32.7418   -1.2520   -7.2337 H         1 UNK         0.2981 
    131 H131       33.6916   -1.1149   -5.2759 H         1 UNK         0.0541 
    132 H132       35.4336   -2.6444   -7.2440 H         1 UNK         0.3459 
    133 H133       36.9509   -2.7272   -6.3837 H         1 UNK         0.3459 
    134 H134       35.0362    1.4665   -6.1618 H         1 UNK         0.0612 
    135 H135       34.5454    1.0386   -4.5439 H         1 UNK         0.0612 
    136 H136       30.7795    1.9108   -4.4097 H         1 UNK         0.0624 
    137 H137       32.2649    1.7013   -3.5130 H         1 UNK         0.0624 
@<TRIPOS>BOND
     1    1    2 1    
     2    1   72 1    
     3    1   73 1    
     4    1   74 1    
     5    2    3 2    
     6    2    4 am   BACKBONE|DICT|INTERRES
     7    4    5 1    
     8    4   75 1    
     9    5    6 1    
    10    5   35 1    
    11    5   76 1    
    12    6    7 1    
    13    6   77 1    
    14    6   78 1    
    15    7    8 1    
    16    8    9 1    
    17    8   79 1    
    18    8   80 1    
    19    9   10 ar   
    20    9   14 ar   
    21   10   11 ar   
    22   10   81 1    
    23   11   12 ar   
    24   11   71 1    
    25   12   13 ar   
    26   12   82 1    
    27   13   14 ar   
    28   13   15 1    
    29   14   83 1    
    30   15   16 1    
    31   15   84 1    
    32   15   85 1    
    33   16   17 1    
    34   17   18 1    
    35   17   86 1    
    36   17   87 1    
    37   18   19 1    
    38   18   37 1    
    39   18   88 1    
    40   19   20 am   BACKBONE|DICT|INTERRES
    41   19   89 1    
    42   20   21 2    
    43   20   22 1    
    44   22   23 1    
    45   22   24 1    
    46   22   90 1    
    47   23   91 1    
    48   23   92 1    
    49   23   93 1    
    50   24   25 am   BACKBONE|DICT|INTERRES
    51   24   94 1    
    52   25   26 2    
    53   25   27 1    
    54   27   28 1    
    55   27   29 1    
    56   27   95 1    
    57   28   96 1    
    58   28   97 1    
    59   28   98 1    
    60   29   30 am   BACKBONE|DICT|INTERRES
    61   29   99 1    
    62   30   31 2    
    63   30   32 1    
    64   32   33 1    
    65   32   34 1    
    66   32  100 1    
    67   33  101 1    
    68   33  102 1    
    69   33  103 1    
    70   34   35 am   BACKBONE|DICT|INTERRES
    71   34  104 1    
    72   35   36 2    
    73   37   38 2    
    74   37   39 am   BACKBONE|DICT|INTERRES
    75   39   40 1    
    76   39  105 1    
    77   40   41 1    
    78   40   42 1    
    79   40  106 1    
    80   41  107 1    
    81   41  108 1    
    82   41  109 1    
    83   42   43 2    
    84   42   44 am   BACKBONE|DICT|INTERRES
    85   44   45 1    
    86   44  110 1    
    87   45   46 1    
    88   45   47 1    
    89   45  111 1    
    90   46  112 1    
    91   46  113 1    
    92   46  114 1    
    93   47   48 2    
    94   47   49 am   BACKBONE|DICT|INTERRES
    95   49   50 1    
    96   49  115 1    
    97   50   51 1    
    98   50   52 1    
    99   50  116 1    
   100   51  117 1    
   101   51  118 1    
   102   51  119 1    
   103   52   53 2    
   104   52   54 am   BACKBONE|DICT|INTERRES
   105   54   55 1    
   106   54  120 1    
   107   55   56 1    
   108   55   57 1    
   109   55  121 1    
   110   56  122 1    
   111   56  123 1    
   112   56  124 1    
   113   57   58 2    
   114   57   59 am   BACKBONE|DICT|INTERRES
   115   59   60 1    
   116   59  125 1    
   117   60   61 1    
   118   60   62 1    
   119   60  126 1    
   120   61  127 1    
   121   61  128 1    
   122   61  129 1    
   123   62   63 2    
   124   62   64 am   BACKBONE|DICT|INTERRES
   125   64   65 1    
   126   64  130 1    
   127   65   66 1    
   128   65   69 1    
   129   65  131 1    
   130   66   67 am   BACKBONE|DICT|INTERRES
   131   66   68 2    
   132   67  132 1    
   133   67  133 1    
   134   69   70 1    
   135   69  134 1    
   136   69  135 1    
   137   70   71 1    
   138   71  136 1    
   139   71  137 1    
@<TRIPOS>SUBSTRUCTURE
     1 UNK         1 GROUP             0       ****    0 ROOT    
