@<TRIPOS>MOLECULE
3R137
137   139    1
SMALL
USER_CHARGES


@<TRIPOS>ATOM
      1 CA         26.5242   -6.8031    1.5906 C.3       0 UNK        -0.2020 
      2 C          26.5189   -5.2859    1.4776 C.2       0 UNK         0.4855 
      3 O          25.6263   -4.6363    2.0222 O.2       0 UNK        -0.5197 
      4 N          27.5122   -4.7183    0.7796 N.am      1 UNK        -0.4892 
      5 CA         27.6540   -3.2775    0.5322 C.3       1 UNK         0.0835 
      6 C6         29.0659   -2.9545   -0.0139 C.3       12 UNK        -0.0855 
      7 S7         29.5092   -1.1850    0.0680 S.3       12 UNK        -0.2931 
      8 C8         29.2430   -0.6274   -1.6484 C.3       12 UNK         0.0378 
      9 C9         30.1710   -1.3214   -2.6363 C.ar      12 UNK        -0.0802 
     10 C10        31.5161   -0.9506   -2.7202 C.ar      12 UNK        -0.0944 
     11 C11        32.3745   -1.5914   -3.6195 C.ar      12 UNK        -0.0787 
     12 C12        31.8752   -2.6076   -4.4400 C.ar      12 UNK        -0.0862 
     13 C13        30.5362   -2.9991   -4.3554 C.ar      12 UNK        -0.0733 
     14 C14        29.6869   -2.3440   -3.4580 C.ar      12 UNK        -0.0832 
     15 C15        30.0349   -4.1702   -5.1908 C.3       12 UNK         0.0240 
     16 S16        29.4270   -3.6554   -6.8265 S.3       12 UNK        -0.2522 
     17 C17        27.7411   -3.1065   -6.4170 C.3       12 UNK        -0.0967 
     18 CA         27.1891   -1.9594   -7.2957 C.3       5 UNK         0.0660 
     19 N          25.7814   -1.7210   -6.9682 N.am      5 UNK        -0.4015 
     20 C          24.9251   -0.9900   -7.6930 C.2       4 UNK         0.4946 
     21 O          25.2134   -0.4532   -8.7605 O.2       4 UNK        -0.5353 
     22 CA         23.5153   -0.7991   -7.1066 C.3       4 UNK         0.0277 
     23 CB         22.6023   -1.9695   -7.5051 C.3       4 UNK        -0.1981 
     24 N          23.5161   -0.6494   -5.6476 N.am      4 UNK        -0.4209 
     25 C          24.0791    0.3772   -4.9932 C.2       3 UNK         0.4942 
     26 O          24.6259    1.3240   -5.5538 O.2       3 UNK        -0.5208 
     27 CA         24.0726    0.3246   -3.4574 C.3       3 UNK         0.0250 
     28 CB         22.8050    0.9915   -2.9009 C.3       3 UNK        -0.1990 
     29 N          24.1942   -1.0321   -2.9164 N.am      3 UNK        -0.4232 
     30 C          25.2596   -1.8270   -3.0854 C.2       2 UNK         0.4993 
     31 O          26.2489   -1.5189   -3.7552 O.2       2 UNK        -0.5286 
     32 CA         25.1828   -3.2204   -2.4374 C.3       2 UNK         0.0209 
     33 CB         25.1981   -4.3156   -3.5172 C.3       2 UNK        -0.1931 
     34 N          26.2631   -3.4762   -1.4810 N.am      2 UNK        -0.4546 
     35 C          26.5299   -2.7472   -0.3856 C.2       1 UNK         0.5154 
     36 O          25.9034   -1.7370   -0.0612 O.2       1 UNK        -0.5181 
     37 C          28.0079   -0.6541   -7.1874 C.2       5 UNK         0.5014 
     38 O          28.7972   -0.3478   -8.0861 O.2       5 UNK        -0.5248 
     39 N          27.7524    0.1210   -6.1219 N.am      6 UNK        -0.4434 
     40 CA         28.3144    1.4572   -5.9216 C.3       6 UNK         0.0363 
     41 CB         27.9898    1.9518   -4.5041 C.3       6 UNK        -0.1936 
     42 C          27.8375    2.4637   -6.9845 C.2       6 UNK         0.5081 
     43 O          28.6636    3.1917   -7.5324 O.2       6 UNK        -0.5248 
     44 N          26.5317    2.4645   -7.2929 N.am      7 UNK        -0.4718 
     45 CA         25.9117    3.3054   -8.3254 C.3       7 UNK         0.0273 
     46 CB         24.3826    3.1749   -8.2539 C.3       7 UNK        -0.1935 
     47 C          26.4128    2.9986   -9.7473 C.2       7 UNK         0.5018 
     48 O          26.5779    3.9249  -10.5415 O.2       7 UNK        -0.5186 
     49 N          26.6894    1.7175  -10.0292 N.am      8 UNK        -0.4240 
     50 CA         27.3390    1.2459  -11.2565 C.3       8 UNK         0.0235 
     51 CB         27.1263   -0.2723  -11.3849 C.3       8 UNK        -0.2000 
     52 C          28.8413    1.5860  -11.3358 C.2       8 UNK         0.4941 
     53 O          29.4431    1.3593  -12.3864 O.2       8 UNK        -0.5273 
     54 N          29.4202    2.1045  -10.2410 N.am      9 UNK        -0.4262 
     55 CA         30.8237    2.4840  -10.0591 C.3       9 UNK         0.0264 
     56 CB         31.2246    3.6276  -11.0155 C.3       9 UNK        -0.1955 
     57 C          31.7938    1.2910  -10.1109 C.2       9 UNK         0.5031 
     58 O          32.9737    1.4791  -10.4179 O.2       9 UNK        -0.5390 
     59 N          31.3217    0.0887   -9.7493 N.am      10 UNK        -0.4204 
     60 CA         32.1188   -1.1423   -9.6886 C.3       10 UNK         0.0237 
     61 CB         31.1886   -2.3487   -9.9012 C.3       10 UNK        -0.1985 
     62 C          32.9489   -1.2224   -8.3893 C.2       10 UNK         0.4970 
     63 O          32.9451   -2.2445   -7.7026 O.2       10 UNK        -0.4914 
     64 N          33.6374   -0.1203   -8.0822 N.am      11 UNK        -0.4285 
     65 CA         34.4200    0.1307   -6.8686 C.3       11 UNK         0.1007 
     66 C          35.6747    1.0161   -7.1430 C.2       11 UNK         0.5703 
     67 N          35.9490    1.4311   -8.3765 N.am      11 UNK        -0.7361 
     68 O          36.4414    1.3138   -6.2311 O.2       11 UNK        -0.4986 
     69 C69        33.4932    0.6762   -5.7436 C.3       12 UNK        -0.0947 
     70 S70        34.1603    0.5230   -4.0534 S.3       12 UNK        -0.2240 
     71 C71        33.8536   -1.2309   -3.6713 C.3       12 UNK         0.0194 
     72 H72        27.3723   -7.2495    1.0718 H         1 UNK         0.0906 
     73 H73        25.6105   -7.2141    1.1620 H         1 UNK         0.0906 
     74 H74        26.5730   -7.1010    2.6377 H         1 UNK         0.0906 
     75 H75        28.2228   -5.3090    0.3704 H         1 UNK         0.3140 
     76 H76        27.5436   -2.7749    1.4963 H         1 UNK         0.1085 
     77 H77        29.1949   -3.3467   -1.0215 H         1 UNK         0.0836 
     78 H78        29.8108   -3.4757    0.5897 H         1 UNK         0.0836 
     79 H79        28.1987   -0.7784   -1.9252 H         1 UNK         0.0731 
     80 H80        29.4137    0.4490   -1.6921 H         1 UNK         0.0731 
     81 H81        31.8989   -0.1713   -2.0753 H         1 UNK         0.1312 
     82 H82        32.5346   -3.1135   -5.1324 H         1 UNK         0.1406 
     83 H83        28.6520   -2.6441   -3.3738 H         1 UNK         0.1631 
     84 H84        29.2512   -4.7122   -4.6592 H         1 UNK         0.0717 
     85 H85        30.8456   -4.8858   -5.3362 H         1 UNK         0.0717 
     86 H86        27.0937   -3.9804   -6.5074 H         1 UNK         0.0934 
     87 H87        27.7031   -2.8197   -5.3698 H         1 UNK         0.0934 
     88 H88        27.2321   -2.2822   -8.3383 H         1 UNK         0.0739 
     89 H89        25.4659   -2.0772   -6.0782 H         1 UNK         0.3093 
     90 H90        23.1011    0.1157   -7.5352 H         1 UNK         0.0818 
     91 H91        22.5725   -2.0874   -8.5894 H         1 UNK         0.0819 
     92 H92        22.9451   -2.9155   -7.0841 H         1 UNK         0.0819 
     93 H93        21.5775   -1.8046   -7.1720 H         1 UNK         0.0819 
     94 H94        23.0706   -1.3773   -5.1082 H         1 UNK         0.3041 
     95 H95        24.9374    0.8940   -3.1099 H         1 UNK         0.0784 
     96 H96        22.7060    2.0120   -3.2743 H         1 UNK         0.0793 
     97 H97        21.9021    0.4508   -3.1876 H         1 UNK         0.0793 
     98 H98        22.8320    1.0491   -1.8126 H         1 UNK         0.0793 
     99 H99        23.4275   -1.3576   -2.3449 H         1 UNK         0.3024 
    100 H100       24.2422   -3.2997   -1.8879 H         1 UNK         0.1171 
    101 H101       24.4100   -4.1538   -4.2540 H         1 UNK         0.0786 
    102 H102       26.1472   -4.3417   -4.0533 H         1 UNK         0.0786 
    103 H103       25.0331   -5.3020   -3.0832 H         1 UNK         0.0786 
    104 H104       26.8212   -4.3004   -1.6457 H         1 UNK         0.2977 
    105 H105       27.1035   -0.2148   -5.4202 H         1 UNK         0.3127 
    106 H106       29.4000    1.3726   -6.0086 H         1 UNK         0.0770 
    107 H107       26.9171    2.0615   -4.3457 H         1 UNK         0.0814 
    108 H108       28.4480    2.9238   -4.3175 H         1 UNK         0.0814 
    109 H109       28.3704    1.2634   -3.7509 H         1 UNK         0.0814 
    110 H110       25.9005    1.8825   -6.7444 H         1 UNK         0.2983 
    111 H111       26.1752    4.3419   -8.1043 H         1 UNK         0.0947 
    112 H112       24.0572    2.1542   -8.4549 H         1 UNK         0.0806 
    113 H113       23.9002    3.8221   -8.9876 H         1 UNK         0.0806 
    114 H114       24.0050    3.4602   -7.2719 H         1 UNK         0.0806 
    115 H115       26.4362    1.0056   -9.3495 H         1 UNK         0.3000 
    116 H116       26.8546    1.7317  -12.1060 H         1 UNK         0.0850 
    117 H117       27.5686   -0.6564  -12.3050 H         1 UNK         0.0810 
    118 H118       26.0657   -0.5233  -11.4080 H         1 UNK         0.0810 
    119 H119       27.5801   -0.8133  -10.5537 H         1 UNK         0.0810 
    120 H120       28.8393    2.2482   -9.4222 H         1 UNK         0.3040 
    121 H121       30.8953    2.8735   -9.0429 H         1 UNK         0.0766 
    122 H122       31.2608    3.2955  -12.0533 H         1 UNK         0.0812 
    123 H123       32.2124    4.0173  -10.7667 H         1 UNK         0.0812 
    124 H124       30.5244    4.4605  -10.9525 H         1 UNK         0.0812 
    125 H125       30.3684    0.0235   -9.4023 H         1 UNK         0.3205 
    126 H126       32.8348   -1.1396  -10.5132 H         1 UNK         0.0754 
    127 H127       31.7331   -3.2912   -9.8314 H         1 UNK         0.0769 
    128 H128       30.7217   -2.3163  -10.8857 H         1 UNK         0.0769 
    129 H129       30.3921   -2.3698   -9.1597 H         1 UNK         0.0769 
    130 H130       33.5821    0.6522   -8.7376 H         1 UNK         0.2981 
    131 H131       34.8238   -0.8297   -6.5452 H         1 UNK         0.0541 
    132 H132       36.7730    1.9926   -8.5237 H         1 UNK         0.3459 
    133 H133       35.3703    1.1836   -9.1631 H         1 UNK         0.3459 
    134 H134       32.5319    0.1602   -5.7615 H         1 UNK         0.0612 
    135 H135       33.2592    1.7264   -5.9252 H         1 UNK         0.0612 
    136 H136       34.3806   -1.8486   -4.3999 H         1 UNK         0.0624 
    137 H137       34.3002   -1.4564   -2.7022 H         1 UNK         0.0624 
@<TRIPOS>BOND
     1    1    2 1    
     2    1   72 1    
     3    1   73 1    
     4    1   74 1    
     5    2    3 2    
     6    2    4 am   BACKBONE|DICT|INTERRES
     7    4    5 1    
     8    4   75 1    
     9    5    6 1    
    10    5   35 1    
    11    5   76 1    
    12    6    7 1    
    13    6   77 1    
    14    6   78 1    
    15    7    8 1    
    16    8    9 1    
    17    8   79 1    
    18    8   80 1    
    19    9   10 ar   
    20    9   14 ar   
    21   10   11 ar   
    22   10   81 1    
    23   11   12 ar   
    24   11   71 1    
    25   12   13 ar   
    26   12   82 1    
    27   13   14 ar   
    28   13   15 1    
    29   14   83 1    
    30   15   16 1    
    31   15   84 1    
    32   15   85 1    
    33   16   17 1    
    34   17   18 1    
    35   17   86 1    
    36   17   87 1    
    37   18   19 1    
    38   18   37 1    
    39   18   88 1    
    40   19   20 am   BACKBONE|DICT|INTERRES
    41   19   89 1    
    42   20   21 2    
    43   20   22 1    
    44   22   23 1    
    45   22   24 1    
    46   22   90 1    
    47   23   91 1    
    48   23   92 1    
    49   23   93 1    
    50   24   25 am   BACKBONE|DICT|INTERRES
    51   24   94 1    
    52   25   26 2    
    53   25   27 1    
    54   27   28 1    
    55   27   29 1    
    56   27   95 1    
    57   28   96 1    
    58   28   97 1    
    59   28   98 1    
    60   29   30 am   BACKBONE|DICT|INTERRES
    61   29   99 1    
    62   30   31 2    
    63   30   32 1    
    64   32   33 1    
    65   32   34 1    
    66   32  100 1    
    67   33  101 1    
    68   33  102 1    
    69   33  103 1    
    70   34   35 am   BACKBONE|DICT|INTERRES
    71   34  104 1    
    72   35   36 2    
    73   37   38 2    
    74   37   39 am   BACKBONE|DICT|INTERRES
    75   39   40 1    
    76   39  105 1    
    77   40   41 1    
    78   40   42 1    
    79   40  106 1    
    80   41  107 1    
    81   41  108 1    
    82   41  109 1    
    83   42   43 2    
    84   42   44 am   BACKBONE|DICT|INTERRES
    85   44   45 1    
    86   44  110 1    
    87   45   46 1    
    88   45   47 1    
    89   45  111 1    
    90   46  112 1    
    91   46  113 1    
    92   46  114 1    
    93   47   48 2    
    94   47   49 am   BACKBONE|DICT|INTERRES
    95   49   50 1    
    96   49  115 1    
    97   50   51 1    
    98   50   52 1    
    99   50  116 1    
   100   51  117 1    
   101   51  118 1    
   102   51  119 1    
   103   52   53 2    
   104   52   54 am   BACKBONE|DICT|INTERRES
   105   54   55 1    
   106   54  120 1    
   107   55   56 1    
   108   55   57 1    
   109   55  121 1    
   110   56  122 1    
   111   56  123 1    
   112   56  124 1    
   113   57   58 2    
   114   57   59 am   BACKBONE|DICT|INTERRES
   115   59   60 1    
   116   59  125 1    
   117   60   61 1    
   118   60   62 1    
   119   60  126 1    
   120   61  127 1    
   121   61  128 1    
   122   61  129 1    
   123   62   63 2    
   124   62   64 am   BACKBONE|DICT|INTERRES
   125   64   65 1    
   126   64  130 1    
   127   65   66 1    
   128   65   69 1    
   129   65  131 1    
   130   66   67 am   BACKBONE|DICT|INTERRES
   131   66   68 2    
   132   67  132 1    
   133   67  133 1    
   134   69   70 1    
   135   69  134 1    
   136   69  135 1    
   137   70   71 1    
   138   71  136 1    
   139   71  137 1    
@<TRIPOS>SUBSTRUCTURE
     1 UNK         1 GROUP             0       ****    0 ROOT    
