@<TRIPOS>MOLECULE
3R137
137   139    1
SMALL
USER_CHARGES


@<TRIPOS>ATOM
      1 CA         23.0499   -7.1498   -4.3833 C.3       0 UNK        -0.2020 
      2 C          23.7324   -6.2912   -3.3293 C.2       0 UNK         0.4855 
      3 O          23.5870   -6.5550   -2.1357 O.2       0 UNK        -0.5197 
      4 N          24.4734   -5.2616   -3.7598 N.am      1 UNK        -0.4892 
      5 CA         25.2306   -4.3481   -2.8887 C.3       1 UNK         0.0835 
      6 C6         26.3568   -3.6025   -3.6559 C.3       12 UNK        -0.0855 
      7 S7         27.4228   -4.7309   -4.6174 S.3       12 UNK        -0.2931 
      8 C8         28.8548   -4.9678   -3.5119 C.3       12 UNK         0.0378 
      9 C9         29.9913   -3.9844   -3.7760 C.ar      12 UNK        -0.0802 
     10 C10        30.4899   -3.8111   -5.0719 C.ar      12 UNK        -0.0944 
     11 C11        31.5719   -2.9611   -5.3143 C.ar      12 UNK        -0.0787 
     12 C12        32.1651   -2.2813   -4.2467 C.ar      12 UNK        -0.0862 
     13 C13        31.6853   -2.4506   -2.9437 C.ar      12 UNK        -0.0733 
     14 C14        30.5976   -3.3021   -2.7153 C.ar      12 UNK        -0.0832 
     15 C15        32.3592   -1.7321   -1.7810 C.3       12 UNK         0.0240 
     16 S16        31.2610   -0.5221   -0.9766 S.3       12 UNK        -0.2522 
     17 C17        31.0370    0.7282   -2.2899 C.3       12 UNK        -0.0967 
     18 CA         29.8015    0.4408   -3.1859 C.3       5 UNK         0.0660 
     19 N          28.5642    0.2123   -2.4356 N.am      5 UNK        -0.4015 
     20 C          27.8584    1.1120   -1.7400 C.2       4 UNK         0.4946 
     21 O          28.1864    2.2889   -1.5754 O.2       4 UNK        -0.5353 
     22 CA         26.5255    0.5976   -1.1706 C.3       4 UNK         0.0277 
     23 CB         26.2137    1.2261    0.1992 C.3       4 UNK        -0.1981 
     24 N          25.3850    0.8201   -2.0659 N.am      4 UNK        -0.4209 
     25 C          25.2758    0.4615   -3.3538 C.2       3 UNK         0.4942 
     26 O          26.1755   -0.0568   -4.0192 O.2       3 UNK        -0.5208 
     27 CA         23.8772    0.6140   -3.9699 C.3       3 UNK         0.0250 
     28 CB         23.9214    0.7372   -5.5039 C.3       3 UNK        -0.1990 
     29 N          23.1101   -0.5745   -3.6081 N.am      3 UNK        -0.4232 
     30 C          22.5045   -0.7637   -2.4275 C.2       2 UNK         0.4993 
     31 O          22.3231    0.1277   -1.5971 O.2       2 UNK        -0.5286 
     32 CA         22.0973   -2.2089   -2.0967 C.3       2 UNK         0.0209 
     33 CB         20.7010   -2.5266   -2.6555 C.3       2 UNK        -0.1931 
     34 N          23.0662   -3.1880   -2.6044 N.am      2 UNK        -0.4546 
     35 C          24.3239   -3.3350   -2.1539 C.2       1 UNK         0.5154 
     36 O          24.7845   -2.6948   -1.2080 O.2       1 UNK        -0.5181 
     37 C          29.6142    1.4701   -4.3220 C.2       5 UNK         0.5014 
     38 O          30.5215    2.2548   -4.5989 O.2       5 UNK        -0.5248 
     39 N          28.4421    1.4359   -4.9686 N.am      6 UNK        -0.4434 
     40 CA         28.0679    2.2940   -6.0926 C.3       6 UNK         0.0363 
     41 CB         27.2810    3.5083   -5.5639 C.3       6 UNK        -0.1936 
     42 C          27.2851    1.5002   -7.1528 C.2       6 UNK         0.5081 
     43 O          26.5248    2.0919   -7.9194 O.2       6 UNK        -0.5248 
     44 N          27.4687    0.1718   -7.1774 N.am      7 UNK        -0.4718 
     45 CA         26.7791   -0.7567   -8.0787 C.3       7 UNK         0.0273 
     46 CB         26.9820   -2.1895   -7.5615 C.3       7 UNK        -0.1935 
     47 C          27.2161   -0.6461   -9.5509 C.2       7 UNK         0.5018 
     48 O          26.4701   -1.0755  -10.4322 O.2       7 UNK        -0.5186 
     49 N          28.4019   -0.0796   -9.7932 N.am      8 UNK        -0.4240 
     50 CA         28.9879    0.1617  -11.1050 C.3       8 UNK         0.0235 
     51 CB         29.6620   -1.1264  -11.6170 C.3       8 UNK        -0.2000 
     52 C          30.0078    1.2965  -10.9758 C.2       8 UNK         0.4941 
     53 O          30.4325    1.6176   -9.8613 O.2       8 UNK        -0.5273 
     54 N          30.4425    1.8382  -12.1216 N.am      9 UNK        -0.4262 
     55 CA         31.5026    2.8514  -12.2171 C.3       9 UNK         0.0264 
     56 CB         31.6105    3.3416  -13.6702 C.3       9 UNK        -0.1955 
     57 C          32.8738    2.3635  -11.7081 C.2       9 UNK         0.5031 
     58 O          33.6817    3.1830  -11.2704 O.2       9 UNK        -0.5390 
     59 N          33.0979    1.0418  -11.7484 N.am      10 UNK        -0.4204 
     60 CA         34.2466    0.3660  -11.1435 C.3       10 UNK         0.0237 
     61 CB         34.3254   -1.0728  -11.6802 C.3       10 UNK        -0.1985 
     62 C          34.2021    0.3604   -9.6036 C.2       10 UNK         0.4970 
     63 O          35.2636    0.3231   -8.9801 O.2       10 UNK        -0.4914 
     64 N          32.9955    0.3905   -9.0209 N.am      11 UNK        -0.4285 
     65 CA         32.7775    0.4976   -7.5725 C.3       11 UNK         0.1007 
     66 C          32.9062    1.9679   -7.0998 C.2       11 UNK         0.5703 
     67 N          32.2534    2.9065   -7.7769 N.am      11 UNK        -0.7361 
     68 O          33.6156    2.2560   -6.1392 O.2       11 UNK        -0.4986 
     69 C69        31.4224   -0.1086   -7.1144 C.3       12 UNK        -0.0947 
     70 S70        31.0804   -1.7700   -7.7811 S.3       12 UNK        -0.2240 
     71 C71        32.1252   -2.8198   -6.7250 C.3       12 UNK         0.0194 
     72 H72        23.3869   -8.1828   -4.3005 H         1 UNK         0.0906 
     73 H73        21.9697   -7.1315   -4.2410 H         1 UNK         0.0906 
     74 H74        23.2651   -6.8038   -5.3942 H         1 UNK         0.0906 
     75 H75        24.5922   -5.1115   -4.7524 H         1 UNK         0.3140 
     76 H76        25.7065   -4.9514   -2.1121 H         1 UNK         0.1085 
     77 H77        26.9762   -3.0219   -2.9694 H         1 UNK         0.0836 
     78 H78        25.9267   -2.8787   -4.3503 H         1 UNK         0.0836 
     79 H79        28.5250   -4.9232   -2.4728 H         1 UNK         0.0731 
     80 H80        29.2399   -5.9769   -3.6639 H         1 UNK         0.0731 
     81 H81        30.0415   -4.3495   -5.8958 H         1 UNK         0.1312 
     82 H82        33.0096   -1.6307   -4.4295 H         1 UNK         0.1406 
     83 H83        30.2358   -3.4410   -1.7053 H         1 UNK         0.1631 
     84 H84        33.2715   -1.2285   -2.1045 H         1 UNK         0.0717 
     85 H85        32.6667   -2.4714   -1.0402 H         1 UNK         0.0717 
     86 H86        30.9376    1.7051   -1.8134 H         1 UNK         0.0934 
     87 H87        31.9466    0.7772   -2.8917 H         1 UNK         0.0934 
     88 H88        29.9869   -0.4964   -3.7086 H         1 UNK         0.0739 
     89 H89        28.1630   -0.7074   -2.5473 H         1 UNK         0.3093 
     90 H90        26.6129   -0.4810   -1.0228 H         1 UNK         0.0818 
     91 H91        25.3334    0.7708    0.6537 H         1 UNK         0.0819 
     92 H92        27.0445    1.0838    0.8918 H         1 UNK         0.0819 
     93 H93        26.0349    2.2994    0.1210 H         1 UNK         0.0819 
     94 H94        24.5535    1.1877   -1.6234 H         1 UNK         0.3041 
     95 H95        23.4009    1.5097   -3.5652 H         1 UNK         0.0784 
     96 H96        22.9201    0.8456   -5.9207 H         1 UNK         0.0793 
     97 H97        24.4940    1.6140   -5.8072 H         1 UNK         0.0793 
     98 H98        24.3846   -0.1327   -5.9710 H         1 UNK         0.0793 
     99 H99        23.2277   -1.3776   -4.2079 H         1 UNK         0.3024 
    100 H100       22.0636   -2.2988   -1.0084 H         1 UNK         0.1171 
    101 H101       20.6757   -2.4696   -3.7444 H         1 UNK         0.0786 
    102 H102       19.9602   -1.8219   -2.2749 H         1 UNK         0.0786 
    103 H103       20.3752   -3.5252   -2.3634 H         1 UNK         0.0786 
    104 H104       22.7696   -3.7789   -3.3676 H         1 UNK         0.2977 
    105 H105       27.7177    0.7938   -4.6463 H         1 UNK         0.3127 
    106 H106       28.9679    2.6564   -6.5943 H         1 UNK         0.0770 
    107 H107       26.3534    3.2038   -5.0787 H         1 UNK         0.0814 
    108 H108       27.0217    4.1939   -6.3715 H         1 UNK         0.0814 
    109 H109       27.8674    4.0726   -4.8386 H         1 UNK         0.0814 
    110 H110       28.1158   -0.2375   -6.5197 H         1 UNK         0.2983 
    111 H111       25.7117   -0.5283   -8.0455 H         1 UNK         0.0947 
    112 H112       26.4588   -2.9118   -8.1896 H         1 UNK         0.0806 
    113 H113       26.5933   -2.3011   -6.5503 H         1 UNK         0.0806 
    114 H114       28.0356   -2.4716   -7.5484 H         1 UNK         0.0806 
    115 H115       28.9399    0.2946   -9.0220 H         1 UNK         0.3000 
    116 H116       28.2048    0.4768  -11.7981 H         1 UNK         0.0850 
    117 H117       30.4580   -1.4570  -10.9482 H         1 UNK         0.0810 
    118 H118       28.9438   -1.9420  -11.7035 H         1 UNK         0.0810 
    119 H119       30.0998   -0.9824  -12.6052 H         1 UNK         0.0810 
    120 H120       30.0414    1.5215  -12.9934 H         1 UNK         0.3040 
    121 H121       31.2086    3.6966  -11.5910 H         1 UNK         0.0766 
    122 H122       30.6710    3.7740  -14.0148 H         1 UNK         0.0812 
    123 H123       31.8802    2.5337  -14.3515 H         1 UNK         0.0812 
    124 H124       32.3739    4.1154  -13.7648 H         1 UNK         0.0812 
    125 H125       32.3890    0.4539  -12.1602 H         1 UNK         0.3205 
    126 H126       35.1522    0.8963  -11.4462 H         1 UNK         0.0754 
    127 H127       35.1910   -1.5948  -11.2697 H         1 UNK         0.0769 
    128 H128       34.4261   -1.0873  -12.7657 H         1 UNK         0.0769 
    129 H129       33.4401   -1.6530  -11.4156 H         1 UNK         0.0769 
    130 H130       32.1662    0.4949   -9.5897 H         1 UNK         0.2981 
    131 H131       33.5635   -0.0698   -7.0708 H         1 UNK         0.0541 
    132 H132       32.3283    3.8687   -7.4901 H         1 UNK         0.3459 
    133 H133       31.6562    2.6472   -8.5533 H         1 UNK         0.3459 
    134 H134       30.5936    0.5335   -7.4147 H         1 UNK         0.0612 
    135 H135       31.3835   -0.1548   -6.0262 H         1 UNK         0.0612 
    136 H136       32.1935   -3.8081   -7.1817 H         1 UNK         0.0624 
    137 H137       33.1421   -2.4258   -6.7086 H         1 UNK         0.0624 
@<TRIPOS>BOND
     1    1    2 1    
     2    1   72 1    
     3    1   73 1    
     4    1   74 1    
     5    2    3 2    
     6    2    4 am   BACKBONE|DICT|INTERRES
     7    4    5 1    
     8    4   75 1    
     9    5    6 1    
    10    5   35 1    
    11    5   76 1    
    12    6    7 1    
    13    6   77 1    
    14    6   78 1    
    15    7    8 1    
    16    8    9 1    
    17    8   79 1    
    18    8   80 1    
    19    9   10 ar   
    20    9   14 ar   
    21   10   11 ar   
    22   10   81 1    
    23   11   12 ar   
    24   11   71 1    
    25   12   13 ar   
    26   12   82 1    
    27   13   14 ar   
    28   13   15 1    
    29   14   83 1    
    30   15   16 1    
    31   15   84 1    
    32   15   85 1    
    33   16   17 1    
    34   17   18 1    
    35   17   86 1    
    36   17   87 1    
    37   18   19 1    
    38   18   37 1    
    39   18   88 1    
    40   19   20 am   BACKBONE|DICT|INTERRES
    41   19   89 1    
    42   20   21 2    
    43   20   22 1    
    44   22   23 1    
    45   22   24 1    
    46   22   90 1    
    47   23   91 1    
    48   23   92 1    
    49   23   93 1    
    50   24   25 am   BACKBONE|DICT|INTERRES
    51   24   94 1    
    52   25   26 2    
    53   25   27 1    
    54   27   28 1    
    55   27   29 1    
    56   27   95 1    
    57   28   96 1    
    58   28   97 1    
    59   28   98 1    
    60   29   30 am   BACKBONE|DICT|INTERRES
    61   29   99 1    
    62   30   31 2    
    63   30   32 1    
    64   32   33 1    
    65   32   34 1    
    66   32  100 1    
    67   33  101 1    
    68   33  102 1    
    69   33  103 1    
    70   34   35 am   BACKBONE|DICT|INTERRES
    71   34  104 1    
    72   35   36 2    
    73   37   38 2    
    74   37   39 am   BACKBONE|DICT|INTERRES
    75   39   40 1    
    76   39  105 1    
    77   40   41 1    
    78   40   42 1    
    79   40  106 1    
    80   41  107 1    
    81   41  108 1    
    82   41  109 1    
    83   42   43 2    
    84   42   44 am   BACKBONE|DICT|INTERRES
    85   44   45 1    
    86   44  110 1    
    87   45   46 1    
    88   45   47 1    
    89   45  111 1    
    90   46  112 1    
    91   46  113 1    
    92   46  114 1    
    93   47   48 2    
    94   47   49 am   BACKBONE|DICT|INTERRES
    95   49   50 1    
    96   49  115 1    
    97   50   51 1    
    98   50   52 1    
    99   50  116 1    
   100   51  117 1    
   101   51  118 1    
   102   51  119 1    
   103   52   53 2    
   104   52   54 am   BACKBONE|DICT|INTERRES
   105   54   55 1    
   106   54  120 1    
   107   55   56 1    
   108   55   57 1    
   109   55  121 1    
   110   56  122 1    
   111   56  123 1    
   112   56  124 1    
   113   57   58 2    
   114   57   59 am   BACKBONE|DICT|INTERRES
   115   59   60 1    
   116   59  125 1    
   117   60   61 1    
   118   60   62 1    
   119   60  126 1    
   120   61  127 1    
   121   61  128 1    
   122   61  129 1    
   123   62   63 2    
   124   62   64 am   BACKBONE|DICT|INTERRES
   125   64   65 1    
   126   64  130 1    
   127   65   66 1    
   128   65   69 1    
   129   65  131 1    
   130   66   67 am   BACKBONE|DICT|INTERRES
   131   66   68 2    
   132   67  132 1    
   133   67  133 1    
   134   69   70 1    
   135   69  134 1    
   136   69  135 1    
   137   70   71 1    
   138   71  136 1    
   139   71  137 1    
@<TRIPOS>SUBSTRUCTURE
     1 UNK         1 GROUP             0       ****    0 ROOT    
