@<TRIPOS>MOLECULE
3R137
137   139    1
SMALL
USER_CHARGES


@<TRIPOS>ATOM
      1 CA         23.0704   -5.5679   -3.4977 C.3       0 UNK        -0.2020 
      2 C          24.0357   -5.2664   -2.3609 C.2       0 UNK         0.4855 
      3 O          23.7481   -5.5897   -1.2086 O.2       0 UNK        -0.5197 
      4 N          25.1764   -4.6478   -2.6754 N.am      1 UNK        -0.4892 
      5 CA         26.2107   -4.2307   -1.7331 C.3       1 UNK         0.0835 
      6 C6         27.1905   -5.3921   -1.4163 C.3       12 UNK        -0.0855 
      7 S7         28.3549   -5.0322   -0.0511 S.3       12 UNK        -0.2931 
      8 C8         29.9546   -5.5945   -0.7252 C.3       12 UNK         0.0378 
      9 C9         30.4698   -4.7194   -1.8626 C.ar      12 UNK        -0.0802 
     10 C10        31.1711   -3.5376   -1.5934 C.ar      12 UNK        -0.0944 
     11 C11        31.6844   -2.7504   -2.6333 C.ar      12 UNK        -0.0787 
     12 C12        31.4929   -3.1749   -3.9534 C.ar      12 UNK        -0.0862 
     13 C13        30.7557   -4.3247   -4.2369 C.ar      12 UNK        -0.0733 
     14 C14        30.2660   -5.1060   -3.1899 C.ar      12 UNK        -0.0832 
     15 C15        30.4477   -4.6906   -5.6789 C.3       12 UNK         0.0240 
     16 S16        28.8436   -3.9938   -6.1867 S.3       12 UNK        -0.2522 
     17 C17        29.1906   -2.2035   -6.1140 C.3       12 UNK        -0.0967 
     18 CA         28.1090   -1.3902   -6.8540 C.3       5 UNK         0.0660 
     19 N          26.8337   -1.3784   -6.1392 N.am      5 UNK        -0.4015 
     20 C          25.6784   -0.9623   -6.6750 C.2       4 UNK         0.4946 
     21 O          25.5530   -0.6055   -7.8467 O.2       4 UNK        -0.5353 
     22 CA         24.4690   -0.8930   -5.7318 C.3       4 UNK         0.0277 
     23 CB         23.8340   -2.2810   -5.5492 C.3       4 UNK        -0.1981 
     24 N          24.8265   -0.3304   -4.4277 N.am      4 UNK        -0.4209 
     25 C          25.1762    0.9490   -4.2291 C.2       3 UNK         0.4942 
     26 O          25.2063    1.7994   -5.1190 O.2       3 UNK        -0.5208 
     27 CA         25.5947    1.3351   -2.8004 C.3       3 UNK         0.0250 
     28 CB         24.3597    1.5930   -1.9225 C.3       3 UNK        -0.1990 
     29 N          26.4535    0.3323   -2.1631 N.am      3 UNK        -0.4232 
     30 C          27.6847    0.0169   -2.5889 C.2       2 UNK         0.4993 
     31 O          28.2265    0.5292   -3.5636 O.2       2 UNK        -0.5286 
     32 CA         28.4301   -1.0860   -1.8312 C.3       2 UNK         0.0209 
     33 CB         29.0924   -0.5189   -0.5654 C.3       2 UNK        -0.1931 
     34 N          27.6010   -2.2379   -1.4768 N.am      2 UNK        -0.4546 
     35 C          26.8999   -2.9916   -2.3333 C.2       1 UNK         0.5154 
     36 O          26.7709   -2.7341   -3.5359 O.2       1 UNK        -0.5181 
     37 C          28.5902    0.0340   -7.1891 C.2       5 UNK         0.5014 
     38 O          29.0241    0.2538   -8.3172 O.2       5 UNK        -0.5248 
     39 N          28.4795    0.9912   -6.2569 N.am      6 UNK        -0.4434 
     40 CA         28.8089    2.4028   -6.4833 C.3       6 UNK         0.0363 
     41 CB         28.7215    3.1929   -5.1695 C.3       6 UNK        -0.1936 
     42 C          27.9484    3.0585   -7.5741 C.2       6 UNK         0.5081 
     43 O          28.4884    3.7950   -8.3987 O.2       6 UNK        -0.5248 
     44 N          26.6489    2.7298   -7.6156 N.am      7 UNK        -0.4718 
     45 CA         25.7279    3.1422   -8.6823 C.3       7 UNK         0.0273 
     46 CB         24.2921    2.7485   -8.3019 C.3       7 UNK        -0.1935 
     47 C          26.1005    2.5788  -10.0689 C.2       7 UNK         0.5018 
     48 O          25.8207    3.2275  -11.0773 O.2       7 UNK        -0.5186 
     49 N          26.7513    1.4080  -10.0932 N.am      8 UNK        -0.4240 
     50 CA         27.3108    0.7701  -11.2874 C.3       8 UNK         0.0235 
     51 CB         27.2076   -0.7564  -11.1180 C.3       8 UNK        -0.2000 
     52 C          28.7686    1.1908  -11.5735 C.2       8 UNK         0.4941 
     53 O          29.3490    0.6848  -12.5348 O.2       8 UNK        -0.5273 
     54 N          29.3424    2.0783  -10.7433 N.am      9 UNK        -0.4262 
     55 CA         30.7337    2.5528  -10.7522 C.3       9 UNK         0.0264 
     56 CB         31.0467    3.3397  -12.0430 C.3       9 UNK        -0.1955 
     57 C          31.7742    1.4515  -10.4507 C.2       9 UNK         0.5031 
     58 O          32.9227    1.5614  -10.8843 O.2       9 UNK        -0.5390 
     59 N          31.3684    0.4253   -9.6925 N.am      10 UNK        -0.4204 
     60 CA         32.1953   -0.6986   -9.2460 C.3       10 UNK         0.0237 
     61 CB         31.4049   -2.0043   -9.4510 C.3       10 UNK        -0.1985 
     62 C          32.6653   -0.5480   -7.7847 C.2       10 UNK         0.4970 
     63 O          33.3485   -1.4431   -7.2870 O.2       10 UNK        -0.4914 
     64 N          32.3189    0.5652   -7.1271 N.am      11 UNK        -0.4285 
     65 CA         32.8177    0.9708   -5.8067 C.3       11 UNK         0.1007 
     66 C          32.7775    2.5141   -5.6497 C.2       11 UNK         0.5703 
     67 N          33.2405    3.0375   -4.5233 N.am      11 UNK        -0.7361 
     68 O          32.3409    3.2420   -6.5403 O.2       11 UNK        -0.4986 
     69 C69        32.1440    0.2029   -4.6237 C.3       12 UNK        -0.0947 
     70 S70        33.3917   -0.6733   -3.6126 S.3       12 UNK        -0.2240 
     71 C71        32.3947   -1.4381   -2.2836 C.3       12 UNK         0.0194 
     72 H72        22.7841   -6.6202   -3.4790 H         1 UNK         0.0906 
     73 H73        23.5096   -5.3556   -4.4732 H         1 UNK         0.0906 
     74 H74        22.1671   -4.9662   -3.3918 H         1 UNK         0.0906 
     75 H75        25.3671   -4.3513   -3.6250 H         1 UNK         0.3140 
     76 H76        25.7241   -3.9135   -0.8076 H         1 UNK         0.1085 
     77 H77        26.6226   -6.2744   -1.1174 H         1 UNK         0.0836 
     78 H78        27.7271   -5.6870   -2.3167 H         1 UNK         0.0836 
     79 H79        30.6880   -5.6007    0.0824 H         1 UNK         0.0731 
     80 H80        29.8619   -6.6316   -1.0519 H         1 UNK         0.0731 
     81 H81        31.3147   -3.2291   -0.5668 H         1 UNK         0.1312 
     82 H82        31.8837   -2.6047   -4.7814 H         1 UNK         0.1406 
     83 H83        29.7148   -6.0088   -3.4144 H         1 UNK         0.1631 
     84 H84        30.4179   -5.7752   -5.7918 H         1 UNK         0.0717 
     85 H85        31.2332   -4.3328   -6.3469 H         1 UNK         0.0717 
     86 H86        29.2542   -1.8906   -5.0703 H         1 UNK         0.0934 
     87 H87        30.1757   -2.0344   -6.5516 H         1 UNK         0.0934 
     88 H88        27.9309   -1.8785   -7.8151 H         1 UNK         0.0739 
     89 H89        26.8443   -1.7153   -5.1798 H         1 UNK         0.3093 
     90 H90        23.7264   -0.2360   -6.1902 H         1 UNK         0.0818 
     91 H91        22.9563   -2.2365   -4.9042 H         1 UNK         0.0819 
     92 H92        23.5103   -2.6873   -6.5084 H         1 UNK         0.0819 
     93 H93        24.5356   -2.9934   -5.1166 H         1 UNK         0.0819 
     94 H94        24.8796   -0.9719   -3.6502 H         1 UNK         0.3041 
     95 H95        26.1638    2.2649   -2.8664 H         1 UNK         0.0784 
     96 H96        23.7141    2.3492   -2.3719 H         1 UNK         0.0793 
     97 H97        23.7605    0.6917   -1.7873 H         1 UNK         0.0793 
     98 H98        24.6442    1.9587   -0.9357 H         1 UNK         0.0793 
     99 H99        26.0870   -0.1458   -1.3528 H         1 UNK         0.3024 
    100 H100       29.2121   -1.4506   -2.4992 H         1 UNK         0.1171 
    101 H101       29.7173    0.3433   -0.8031 H         1 UNK         0.0786 
    102 H102       29.7327   -1.2594   -0.0863 H         1 UNK         0.0786 
    103 H103       28.3532   -0.1920    0.1668 H         1 UNK         0.0786 
    104 H104       27.6717   -2.5599   -0.5213 H         1 UNK         0.2977 
    105 H105       28.1881    0.7446   -5.3101 H         1 UNK         0.3127 
    106 H106       29.8422    2.4409   -6.8287 H         1 UNK         0.0770 
    107 H107       27.7218    3.1455   -4.7367 H         1 UNK         0.0814 
    108 H108       28.9618    4.2448   -5.3293 H         1 UNK         0.0814 
    109 H109       29.4268    2.8105   -4.4315 H         1 UNK         0.0814 
    110 H110       26.2630    2.1570   -6.8707 H         1 UNK         0.2983 
    111 H111       25.7739    4.2311   -8.7539 H         1 UNK         0.0947 
    112 H112       23.5821    3.0792   -9.0611 H         1 UNK         0.0806 
    113 H113       23.9932    3.2036   -7.3574 H         1 UNK         0.0806 
    114 H114       24.1826    1.6686   -8.2010 H         1 UNK         0.0806 
    115 H115       26.9258    0.9388   -9.2125 H         1 UNK         0.3000 
    116 H116       26.7171    1.0543  -12.1587 H         1 UNK         0.0850 
    117 H117       27.5310   -1.2748  -12.0215 H         1 UNK         0.0810 
    118 H118       26.1813   -1.0651  -10.9176 H         1 UNK         0.0810 
    119 H119       27.8295   -1.1152  -10.2976 H         1 UNK         0.0810 
    120 H120       28.7812    2.4377   -9.9787 H         1 UNK         0.3040 
    121 H121       30.8069    3.2559   -9.9211 H         1 UNK         0.0766 
    122 H122       31.0716    2.6903  -12.9184 H         1 UNK         0.0812 
    123 H123       30.3055    4.1184  -12.2224 H         1 UNK         0.0812 
    124 H124       32.0188    3.8297  -11.9765 H         1 UNK         0.0812 
    125 H125       30.4078    0.4262   -9.3425 H         1 UNK         0.3205 
    126 H126       33.0978   -0.7580   -9.8575 H         1 UNK         0.0754 
    127 H127       31.9791   -2.8724   -9.1244 H         1 UNK         0.0769 
    128 H128       31.1661   -2.1545  -10.5040 H         1 UNK         0.0769 
    129 H129       30.4662   -2.0056   -8.8986 H         1 UNK         0.0769 
    130 H130       31.8002    1.2831   -7.6136 H         1 UNK         0.2981 
    131 H131       33.8860    0.7459   -5.8259 H         1 UNK         0.0541 
    132 H132       33.6058    2.4490   -3.7906 H         1 UNK         0.3459 
    133 H133       33.2274    4.0384   -4.4059 H         1 UNK         0.3459 
    134 H134       31.4088   -0.5081   -4.9946 H         1 UNK         0.0612 
    135 H135       31.5751    0.8685   -3.9714 H         1 UNK         0.0612 
    136 H136       33.0632   -1.6198   -1.4409 H         1 UNK         0.0624 
    137 H137       31.6581   -0.7131   -1.9389 H         1 UNK         0.0624 
@<TRIPOS>BOND
     1    1    2 1    
     2    1   72 1    
     3    1   73 1    
     4    1   74 1    
     5    2    3 2    
     6    2    4 am   BACKBONE|DICT|INTERRES
     7    4    5 1    
     8    4   75 1    
     9    5    6 1    
    10    5   35 1    
    11    5   76 1    
    12    6    7 1    
    13    6   77 1    
    14    6   78 1    
    15    7    8 1    
    16    8    9 1    
    17    8   79 1    
    18    8   80 1    
    19    9   10 ar   
    20    9   14 ar   
    21   10   11 ar   
    22   10   81 1    
    23   11   12 ar   
    24   11   71 1    
    25   12   13 ar   
    26   12   82 1    
    27   13   14 ar   
    28   13   15 1    
    29   14   83 1    
    30   15   16 1    
    31   15   84 1    
    32   15   85 1    
    33   16   17 1    
    34   17   18 1    
    35   17   86 1    
    36   17   87 1    
    37   18   19 1    
    38   18   37 1    
    39   18   88 1    
    40   19   20 am   BACKBONE|DICT|INTERRES
    41   19   89 1    
    42   20   21 2    
    43   20   22 1    
    44   22   23 1    
    45   22   24 1    
    46   22   90 1    
    47   23   91 1    
    48   23   92 1    
    49   23   93 1    
    50   24   25 am   BACKBONE|DICT|INTERRES
    51   24   94 1    
    52   25   26 2    
    53   25   27 1    
    54   27   28 1    
    55   27   29 1    
    56   27   95 1    
    57   28   96 1    
    58   28   97 1    
    59   28   98 1    
    60   29   30 am   BACKBONE|DICT|INTERRES
    61   29   99 1    
    62   30   31 2    
    63   30   32 1    
    64   32   33 1    
    65   32   34 1    
    66   32  100 1    
    67   33  101 1    
    68   33  102 1    
    69   33  103 1    
    70   34   35 am   BACKBONE|DICT|INTERRES
    71   34  104 1    
    72   35   36 2    
    73   37   38 2    
    74   37   39 am   BACKBONE|DICT|INTERRES
    75   39   40 1    
    76   39  105 1    
    77   40   41 1    
    78   40   42 1    
    79   40  106 1    
    80   41  107 1    
    81   41  108 1    
    82   41  109 1    
    83   42   43 2    
    84   42   44 am   BACKBONE|DICT|INTERRES
    85   44   45 1    
    86   44  110 1    
    87   45   46 1    
    88   45   47 1    
    89   45  111 1    
    90   46  112 1    
    91   46  113 1    
    92   46  114 1    
    93   47   48 2    
    94   47   49 am   BACKBONE|DICT|INTERRES
    95   49   50 1    
    96   49  115 1    
    97   50   51 1    
    98   50   52 1    
    99   50  116 1    
   100   51  117 1    
   101   51  118 1    
   102   51  119 1    
   103   52   53 2    
   104   52   54 am   BACKBONE|DICT|INTERRES
   105   54   55 1    
   106   54  120 1    
   107   55   56 1    
   108   55   57 1    
   109   55  121 1    
   110   56  122 1    
   111   56  123 1    
   112   56  124 1    
   113   57   58 2    
   114   57   59 am   BACKBONE|DICT|INTERRES
   115   59   60 1    
   116   59  125 1    
   117   60   61 1    
   118   60   62 1    
   119   60  126 1    
   120   61  127 1    
   121   61  128 1    
   122   61  129 1    
   123   62   63 2    
   124   62   64 am   BACKBONE|DICT|INTERRES
   125   64   65 1    
   126   64  130 1    
   127   65   66 1    
   128   65   69 1    
   129   65  131 1    
   130   66   67 am   BACKBONE|DICT|INTERRES
   131   66   68 2    
   132   67  132 1    
   133   67  133 1    
   134   69   70 1    
   135   69  134 1    
   136   69  135 1    
   137   70   71 1    
   138   71  136 1    
   139   71  137 1    
@<TRIPOS>SUBSTRUCTURE
     1 UNK         1 GROUP             0       ****    0 ROOT    
