@<TRIPOS>MOLECULE
3R137
137   139    1
SMALL
USER_CHARGES


@<TRIPOS>ATOM
      1 CA         24.3712   -5.8140   -1.6034 C.3       0 UNK        -0.2020 
      2 C          24.9123   -4.5291   -0.9964 C.2       0 UNK         0.4855 
      3 O          24.1363   -3.6408   -0.6420 O.2       0 UNK        -0.5197 
      4 N          26.2416   -4.4250   -0.8827 N.am      1 UNK        -0.4892 
      5 CA         26.9961   -3.2755   -0.3700 C.3       1 UNK         0.0835 
      6 C6         28.5203   -3.5703   -0.2784 C.3       12 UNK        -0.0855 
      7 S7         29.1987   -4.5762   -1.6510 S.3       12 UNK        -0.2931 
      8 C8         30.9000   -3.9497   -1.7804 C.3       12 UNK         0.0378 
      9 C9         31.0159   -2.8346   -2.8083 C.ar      12 UNK        -0.0802 
     10 C10        31.2483   -3.1480   -4.1506 C.ar      12 UNK        -0.0944 
     11 C11        31.4146   -2.1342   -5.0973 C.ar      12 UNK        -0.0787 
     12 C12        31.3326   -0.7981   -4.6959 C.ar      12 UNK        -0.0862 
     13 C13        31.0960   -0.4686   -3.3564 C.ar      12 UNK        -0.0733 
     14 C14        30.9358   -1.4945   -2.4183 C.ar      12 UNK        -0.0832 
     15 C15        31.0599    0.9872   -2.8986 C.3       12 UNK         0.0240 
     16 S16        29.9298    2.0433   -3.8638 S.3       12 UNK        -0.2522 
     17 C17        28.3399    1.1620   -3.7027 C.3       12 UNK        -0.0967 
     18 CA         27.8701    0.5923   -5.0677 C.3       5 UNK         0.0660 
     19 N          27.2633   -0.7385   -4.9253 N.am      5 UNK        -0.4015 
     20 C          26.9189   -1.5612   -5.9288 C.2       4 UNK         0.4946 
     21 O          27.0232   -1.2732   -7.1203 O.2       4 UNK        -0.5353 
     22 CA         26.2606   -2.8897   -5.5318 C.3       4 UNK         0.0277 
     23 CB         27.3002   -3.8898   -4.9984 C.3       4 UNK        -0.1981 
     24 N          25.2135   -2.6530   -4.5352 N.am      4 UNK        -0.4209 
     25 C          23.9842   -2.2059   -4.8385 C.2       3 UNK         0.4942 
     26 O          23.5637   -2.0997   -5.9901 O.2       3 UNK        -0.5208 
     27 CA         23.0727   -1.7700   -3.6767 C.3       3 UNK         0.0250 
     28 CB         22.1062   -2.8980   -3.2836 C.3       3 UNK        -0.1990 
     29 N          23.8223   -1.3188   -2.5008 N.am      3 UNK        -0.4232 
     30 C          24.4942   -0.1574   -2.4473 C.2       2 UNK         0.4993 
     31 O          24.4906    0.6722   -3.3558 O.2       2 UNK        -0.5286 
     32 CA         25.3530    0.1135   -1.1981 C.3       2 UNK         0.0209 
     33 CB         24.5564    0.9252   -0.1645 C.3       2 UNK        -0.1931 
     34 N          25.8770   -1.1007   -0.5649 N.am      2 UNK        -0.4546 
     35 C          26.6801   -1.9913   -1.1637 C.2       1 UNK         0.5154 
     36 O          27.0990   -1.8541   -2.3139 O.2       1 UNK        -0.5181 
     37 C          27.0128    1.6172   -5.8518 C.2       5 UNK         0.5014 
     38 O          27.5299    2.6628   -6.2457 O.2       5 UNK        -0.5248 
     39 N          25.7395    1.2983   -6.1269 N.am      6 UNK        -0.4434 
     40 CA         24.8838    1.9872   -7.0973 C.3       6 UNK         0.0363 
     41 CB         23.4804    1.3635   -7.0596 C.3       6 UNK        -0.1936 
     42 C          25.4488    1.9657   -8.5347 C.2       6 UNK         0.5081 
     43 O          25.1431    2.8698   -9.3116 O.2       6 UNK        -0.5248 
     44 N          26.2986    0.9757   -8.8499 N.am      7 UNK        -0.4718 
     45 CA         27.0946    0.8910  -10.0786 C.3       7 UNK         0.0273 
     46 CB         27.2575   -0.5923  -10.4577 C.3       7 UNK        -0.1935 
     47 C          28.4588    1.6110   -9.9609 C.2       7 UNK         0.5018 
     48 O          29.3489    1.3384  -10.7682 O.2       7 UNK        -0.5186 
     49 N          28.5912    2.5147   -8.9765 N.am      8 UNK        -0.4240 
     50 CA         29.7620    3.3091   -8.5849 C.3       8 UNK         0.0235 
     51 CB         30.3701    4.0722   -9.7819 C.3       8 UNK        -0.2000 
     52 C          30.8164    2.4809   -7.8336 C.2       8 UNK         0.4941 
     53 O          30.7600    1.2483   -7.8173 O.2       8 UNK        -0.5273 
     54 N          31.7932    3.1801   -7.2376 N.am      9 UNK        -0.4262 
     55 CA         32.9241    2.6289   -6.4782 C.3       9 UNK         0.0264 
     56 CB         33.5497    3.7530   -5.6317 C.3       9 UNK        -0.1955 
     57 C          33.9594    1.9067   -7.3695 C.2       9 UNK         0.5031 
     58 O          35.1492    2.2261   -7.3294 O.2       9 UNK        -0.5390 
     59 N          33.4720    0.9555   -8.1683 N.am      10 UNK        -0.4204 
     60 CA         34.2024    0.1502   -9.1439 C.3       10 UNK         0.0237 
     61 CB         34.6437    1.0073  -10.3468 C.3       10 UNK        -0.1985 
     62 C          33.3486   -1.0350   -9.6162 C.2       10 UNK         0.4970 
     63 O          33.9071   -2.1071   -9.8509 O.2       10 UNK        -0.4914 
     64 N          32.0249   -0.8338   -9.7237 N.am      11 UNK        -0.4285 
     65 CA         31.0312   -1.8182  -10.1819 C.3       11 UNK         0.1007 
     66 C          31.2349   -2.2660  -11.6634 C.2       11 UNK         0.5703 
     67 N          30.5620   -3.3188  -12.1106 N.am      11 UNK        -0.7361 
     68 O          31.9570   -1.6399  -12.4382 O.2       11 UNK        -0.4986 
     69 C69        30.8465   -2.9974   -9.1786 C.3       12 UNK        -0.0947 
     70 S70        30.2120   -2.4473   -7.5600 S.3       12 UNK        -0.2240 
     71 C71        31.7164   -2.4817   -6.5461 C.3       12 UNK         0.0194 
     72 H72        24.1500   -5.6690   -2.6602 H         1 UNK         0.0906 
     73 H73        25.0857   -6.6322   -1.5137 H         1 UNK         0.0906 
     74 H74        23.4531   -6.1136   -1.0987 H         1 UNK         0.0906 
     75 H75        26.8282   -5.1708   -1.2328 H         1 UNK         0.3140 
     76 H76        26.6481   -3.1115    0.6523 H         1 UNK         0.1085 
     77 H77        28.7162   -4.1261    0.6400 H         1 UNK         0.0836 
     78 H78        29.0890   -2.6442   -0.1776 H         1 UNK         0.0836 
     79 H79        31.5514   -4.7765   -2.0677 H         1 UNK         0.0731 
     80 H80        31.2558   -3.6168   -0.8042 H         1 UNK         0.0731 
     81 H81        31.3140   -4.1835   -4.4555 H         1 UNK         0.1312 
     82 H82        31.4491   -0.0173   -5.4324 H         1 UNK         0.1406 
     83 H83        30.7664   -1.2514   -1.3785 H         1 UNK         0.1631 
     84 H84        32.0667    1.4004   -2.9705 H         1 UNK         0.0717 
     85 H85        30.7756    1.0552   -1.8474 H         1 UNK         0.0717 
     86 H86        28.4648    0.3637   -2.9702 H         1 UNK         0.0934 
     87 H87        27.5993    1.8365   -3.2686 H         1 UNK         0.0934 
     88 H88        28.7510    0.4190   -5.6909 H         1 UNK         0.0739 
     89 H89        27.1669   -1.0869   -3.9732 H         1 UNK         0.3093 
     90 H90        25.8084   -3.3252   -6.4258 H         1 UNK         0.0818 
     91 H91        27.8570   -3.4948   -4.1491 H         1 UNK         0.0819 
     92 H92        26.8334   -4.8244   -4.6879 H         1 UNK         0.0819 
     93 H93        28.0317   -4.1314   -5.7706 H         1 UNK         0.0819 
     94 H94        25.5070   -2.6597   -3.5669 H         1 UNK         0.3041 
     95 H95        22.4731   -0.9297   -4.0342 H         1 UNK         0.0784 
     96 H96        21.4852   -3.1897   -4.1317 H         1 UNK         0.0793 
     97 H97        22.6350   -3.7890   -2.9490 H         1 UNK         0.0793 
     98 H98        21.4353   -2.5857   -2.4832 H         1 UNK         0.0793 
     99 H99        23.8857   -1.9653   -1.7187 H         1 UNK         0.3024 
    100 H100       26.2073    0.7127   -1.5185 H         1 UNK         0.1171 
    101 H101       24.1739    1.8477   -0.6039 H         1 UNK         0.0786 
    102 H102       23.7006    0.3660    0.2159 H         1 UNK         0.0786 
    103 H103       25.1790    1.2077    0.6847 H         1 UNK         0.0786 
    104 H104       25.5311   -1.3078    0.3615 H         1 UNK         0.2977 
    105 H105       25.3648    0.4570   -5.7119 H         1 UNK         0.3127 
    106 H106       24.8078    3.0314   -6.7877 H         1 UNK         0.0770 
    107 H107       23.4971    0.3174   -7.3683 H         1 UNK         0.0814 
    108 H108       22.8011    1.8909   -7.7306 H         1 UNK         0.0814 
    109 H109       23.0506    1.4110   -6.0586 H         1 UNK         0.0814 
    110 H110       26.4983    0.2610   -8.1517 H         1 UNK         0.2983 
    111 H111       26.5538    1.3830  -10.8899 H         1 UNK         0.0947 
    112 H112       27.8014   -0.7063  -11.3962 H         1 UNK         0.0806 
    113 H113       26.2891   -1.0753  -10.5871 H         1 UNK         0.0806 
    114 H114       27.8029   -1.1432   -9.6909 H         1 UNK         0.0806 
    115 H115       27.8244    2.5831   -8.3175 H         1 UNK         0.3000 
    116 H116       29.3819    4.0461   -7.8756 H         1 UNK         0.0850 
    117 H117       30.8956    3.4060  -10.4669 H         1 UNK         0.0810 
    118 H118       29.6019    4.5980  -10.3491 H         1 UNK         0.0810 
    119 H119       31.0901    4.8202   -9.4493 H         1 UNK         0.0810 
    120 H120       31.7767    4.1859   -7.3253 H         1 UNK         0.3040 
    121 H121       32.5330    1.8866   -5.7828 H         1 UNK         0.0766 
    122 H122       34.3605    3.3700   -5.0105 H         1 UNK         0.0812 
    123 H123       32.8155    4.1982   -4.9597 H         1 UNK         0.0812 
    124 H124       33.9626    4.5467   -6.2554 H         1 UNK         0.0812 
    125 H125       32.4710    0.7787   -8.0843 H         1 UNK         0.3205 
    126 H126       35.0894   -0.2554   -8.6531 H         1 UNK         0.0754 
    127 H127       35.1484    0.3966  -11.0967 H         1 UNK         0.0769 
    128 H128       35.3415    1.7897  -10.0485 H         1 UNK         0.0769 
    129 H129       33.7924    1.4853  -10.8331 H         1 UNK         0.0769 
    130 H130       31.6386    0.0826   -9.5432 H         1 UNK         0.2981 
    131 H131       30.0952   -1.2632  -10.2047 H         1 UNK         0.0541 
    132 H132       30.6766   -3.5976  -13.0725 H         1 UNK         0.3459 
    133 H133       29.9431   -3.8383  -11.5090 H         1 UNK         0.3459 
    134 H134       31.7748   -3.5555   -9.0504 H         1 UNK         0.0612 
    135 H135       30.1155   -3.7153   -9.5511 H         1 UNK         0.0612 
    136 H136       32.1749   -3.4695   -6.6116 H         1 UNK         0.0624 
    137 H137       32.4425   -1.7746   -6.9466 H         1 UNK         0.0624 
@<TRIPOS>BOND
     1    1    2 1    
     2    1   72 1    
     3    1   73 1    
     4    1   74 1    
     5    2    3 2    
     6    2    4 am   BACKBONE|DICT|INTERRES
     7    4    5 1    
     8    4   75 1    
     9    5    6 1    
    10    5   35 1    
    11    5   76 1    
    12    6    7 1    
    13    6   77 1    
    14    6   78 1    
    15    7    8 1    
    16    8    9 1    
    17    8   79 1    
    18    8   80 1    
    19    9   10 ar   
    20    9   14 ar   
    21   10   11 ar   
    22   10   81 1    
    23   11   12 ar   
    24   11   71 1    
    25   12   13 ar   
    26   12   82 1    
    27   13   14 ar   
    28   13   15 1    
    29   14   83 1    
    30   15   16 1    
    31   15   84 1    
    32   15   85 1    
    33   16   17 1    
    34   17   18 1    
    35   17   86 1    
    36   17   87 1    
    37   18   19 1    
    38   18   37 1    
    39   18   88 1    
    40   19   20 am   BACKBONE|DICT|INTERRES
    41   19   89 1    
    42   20   21 2    
    43   20   22 1    
    44   22   23 1    
    45   22   24 1    
    46   22   90 1    
    47   23   91 1    
    48   23   92 1    
    49   23   93 1    
    50   24   25 am   BACKBONE|DICT|INTERRES
    51   24   94 1    
    52   25   26 2    
    53   25   27 1    
    54   27   28 1    
    55   27   29 1    
    56   27   95 1    
    57   28   96 1    
    58   28   97 1    
    59   28   98 1    
    60   29   30 am   BACKBONE|DICT|INTERRES
    61   29   99 1    
    62   30   31 2    
    63   30   32 1    
    64   32   33 1    
    65   32   34 1    
    66   32  100 1    
    67   33  101 1    
    68   33  102 1    
    69   33  103 1    
    70   34   35 am   BACKBONE|DICT|INTERRES
    71   34  104 1    
    72   35   36 2    
    73   37   38 2    
    74   37   39 am   BACKBONE|DICT|INTERRES
    75   39   40 1    
    76   39  105 1    
    77   40   41 1    
    78   40   42 1    
    79   40  106 1    
    80   41  107 1    
    81   41  108 1    
    82   41  109 1    
    83   42   43 2    
    84   42   44 am   BACKBONE|DICT|INTERRES
    85   44   45 1    
    86   44  110 1    
    87   45   46 1    
    88   45   47 1    
    89   45  111 1    
    90   46  112 1    
    91   46  113 1    
    92   46  114 1    
    93   47   48 2    
    94   47   49 am   BACKBONE|DICT|INTERRES
    95   49   50 1    
    96   49  115 1    
    97   50   51 1    
    98   50   52 1    
    99   50  116 1    
   100   51  117 1    
   101   51  118 1    
   102   51  119 1    
   103   52   53 2    
   104   52   54 am   BACKBONE|DICT|INTERRES
   105   54   55 1    
   106   54  120 1    
   107   55   56 1    
   108   55   57 1    
   109   55  121 1    
   110   56  122 1    
   111   56  123 1    
   112   56  124 1    
   113   57   58 2    
   114   57   59 am   BACKBONE|DICT|INTERRES
   115   59   60 1    
   116   59  125 1    
   117   60   61 1    
   118   60   62 1    
   119   60  126 1    
   120   61  127 1    
   121   61  128 1    
   122   61  129 1    
   123   62   63 2    
   124   62   64 am   BACKBONE|DICT|INTERRES
   125   64   65 1    
   126   64  130 1    
   127   65   66 1    
   128   65   69 1    
   129   65  131 1    
   130   66   67 am   BACKBONE|DICT|INTERRES
   131   66   68 2    
   132   67  132 1    
   133   67  133 1    
   134   69   70 1    
   135   69  134 1    
   136   69  135 1    
   137   70   71 1    
   138   71  136 1    
   139   71  137 1    
@<TRIPOS>SUBSTRUCTURE
     1 UNK         1 GROUP             0       ****    0 ROOT    
