@<TRIPOS>MOLECULE
3R137
137   139    1
SMALL
USER_CHARGES


@<TRIPOS>ATOM
      1 CA         26.1577   -6.0815   -5.5090 C.3       0 UNK        -0.2020 
      2 C          26.4767   -5.2092   -4.3049 C.2       0 UNK         0.4855 
      3 O          26.6679   -4.0061   -4.4731 O.2       0 UNK        -0.5197 
      4 N          26.5200   -5.8125   -3.1069 N.am      1 UNK        -0.4892 
      5 CA         26.8113   -5.2177   -1.7921 C.3       1 UNK         0.0835 
      6 C6         28.3237   -5.2644   -1.4150 C.3       12 UNK        -0.0855 
      7 S7         29.4677   -4.2424   -2.4161 S.3       12 UNK        -0.2931 
      8 C8         30.4671   -3.4802   -1.1001 C.3       12 UNK         0.0378 
      9 C9         31.3402   -2.3616   -1.6438 C.ar      12 UNK        -0.0802 
     10 C10        32.5689   -2.6534   -2.2433 C.ar      12 UNK        -0.0944 
     11 C11        33.3839   -1.6238   -2.7241 C.ar      12 UNK        -0.0787 
     12 C12        32.9612   -0.2967   -2.6037 C.ar      12 UNK        -0.0862 
     13 C13        31.7307    0.0057   -2.0147 C.ar      12 UNK        -0.0733 
     14 C14        30.9274   -1.0308   -1.5294 C.ar      12 UNK        -0.0832 
     15 C15        31.2735    1.4533   -1.9006 C.3       12 UNK         0.0240 
     16 S16        30.6888    2.1117   -3.4948 S.3       12 UNK        -0.2522 
     17 C17        29.1795    1.1262   -3.7590 C.3       12 UNK        -0.0967 
     18 CA         28.6690    1.2179   -5.2173 C.3       5 UNK         0.0660 
     19 N          27.9638    0.0026   -5.6223 N.am      5 UNK        -0.4015 
     20 C          27.6811   -0.3279   -6.8886 C.2       4 UNK         0.4946 
     21 O          28.0586    0.3206   -7.8641 O.2       4 UNK        -0.5353 
     22 CA         26.8075   -1.5739   -7.1022 C.3       4 UNK         0.0277 
     23 CB         27.6833   -2.8187   -7.2991 C.3       4 UNK        -0.1981 
     24 N          25.8727   -1.8050   -5.9977 N.am      4 UNK        -0.4209 
     25 C          24.8142   -1.0264   -5.7344 C.2       3 UNK         0.4942 
     26 O          24.5054   -0.0470   -6.4114 O.2       3 UNK        -0.5208 
     27 CA         23.9877   -1.3639   -4.4830 C.3       3 UNK         0.0250 
     28 CB         23.0475   -2.5478   -4.7592 C.3       3 UNK        -0.1990 
     29 N          24.7981   -1.6533   -3.2975 N.am      3 UNK        -0.4232 
     30 C          25.7070   -0.8425   -2.7422 C.2       2 UNK         0.4993 
     31 O          25.9945    0.2656   -3.1949 O.2       2 UNK        -0.5286 
     32 CA         26.4510   -1.3487   -1.4924 C.3       2 UNK         0.0209 
     33 CB         25.6635   -1.0296   -0.2077 C.3       2 UNK        -0.1931 
     34 N          26.8497   -2.7631   -1.5539 N.am      2 UNK        -0.4546 
     35 C          26.0912   -3.8677   -1.5599 C.2       1 UNK         0.5154 
     36 O          24.8635   -3.8564   -1.4467 O.2       1 UNK        -0.5181 
     37 C          27.7870    2.4587   -5.4549 C.2       5 UNK         0.5014 
     38 O          28.2424    3.4151   -6.0824 O.2       5 UNK        -0.5248 
     39 N          26.5225    2.3922   -5.0098 N.am      6 UNK        -0.4434 
     40 CA         25.4954    3.4162   -5.2270 C.3       6 UNK         0.0363 
     41 CB         24.2242    3.0373   -4.4508 C.3       6 UNK        -0.1936 
     42 C          25.1762    3.6520   -6.7149 C.2       6 UNK         0.5081 
     43 O          24.9780    4.7984   -7.1174 O.2       6 UNK        -0.5248 
     44 N          25.1706    2.5735   -7.5104 N.am      7 UNK        -0.4718 
     45 CA         25.0183    2.6037   -8.9687 C.3       7 UNK         0.0273 
     46 CB         24.6303    1.1979   -9.4563 C.3       7 UNK        -0.1935 
     47 C          26.2697    3.0984   -9.7221 C.2       7 UNK         0.5018 
     48 O          26.1772    3.3243  -10.9295 O.2       7 UNK        -0.5186 
     49 N          27.4055    3.2388   -9.0198 N.am      8 UNK        -0.4240 
     50 CA         28.7314    3.6118   -9.5266 C.3       8 UNK         0.0235 
     51 CB         28.7360    5.0619  -10.0562 C.3       8 UNK        -0.2000 
     52 C          29.2951    2.5929  -10.5377 C.2       8 UNK         0.4941 
     53 O          29.9304    2.9821  -11.5192 O.2       8 UNK        -0.5273 
     54 N          29.0698    1.2998  -10.2681 N.am      9 UNK        -0.4262 
     55 CA         29.5272    0.1710  -11.0837 C.3       9 UNK         0.0264 
     56 CB         28.4683   -0.9436  -11.0208 C.3       9 UNK        -0.1955 
     57 C          30.9187   -0.3507  -10.6691 C.2       9 UNK         0.5031 
     58 O          31.3736   -1.3394  -11.2456 O.2       9 UNK        -0.5390 
     59 N          31.5663    0.3228   -9.7042 N.am      10 UNK        -0.4204 
     60 CA         32.8955    0.0532   -9.1425 C.3       10 UNK         0.0237 
     61 CB         33.9964    0.1730  -10.2196 C.3       10 UNK        -0.1985 
     62 C          32.9428   -1.2800   -8.3740 C.2       10 UNK         0.4970 
     63 O          33.5629   -2.2398   -8.8366 O.2       10 UNK        -0.4914 
     64 N          32.2973   -1.2789   -7.1991 N.am      11 UNK        -0.4285 
     65 CA         32.2061   -2.3818   -6.2236 C.3       11 UNK         0.1007 
     66 C          31.2669   -3.5372   -6.6705 C.2       11 UNK         0.5703 
     67 N          30.7940   -4.3421   -5.7286 N.am      11 UNK        -0.7361 
     68 O          30.9586   -3.7227   -7.8453 O.2       11 UNK        -0.4986 
     69 C69        33.5892   -2.9294   -5.7584 C.3       12 UNK        -0.0947 
     70 S70        34.7212   -1.6303   -5.1542 S.3       12 UNK        -0.2240 
     71 C71        34.7286   -1.9386   -3.3613 C.3       12 UNK         0.0194 
     72 H72        25.2744   -5.7019   -6.0219 H         1 UNK         0.0906 
     73 H73        26.9912   -6.0661   -6.2105 H         1 UNK         0.0906 
     74 H74        25.9689   -7.1172   -5.2276 H         1 UNK         0.0906 
     75 H75        26.3168   -6.8018   -3.0736 H         1 UNK         0.3140 
     76 H76        26.3201   -5.8896   -1.0856 H         1 UNK         0.1085 
     77 H77        28.6734   -6.2953   -1.4883 H         1 UNK         0.0836 
     78 H78        28.4347   -5.0088   -0.3597 H         1 UNK         0.0836 
     79 H79        31.0890   -4.2445   -0.6310 H         1 UNK         0.0731 
     80 H80        29.8144   -3.0921   -0.3163 H         1 UNK         0.0731 
     81 H81        32.8905   -3.6823   -2.3302 H         1 UNK         0.1312 
     82 H82        33.5868    0.5016   -2.9798 H         1 UNK         0.1406 
     83 H83        29.9790   -0.8007   -1.0638 H         1 UNK         0.1631 
     84 H84        32.1039    2.0675   -1.5493 H         1 UNK         0.0717 
     85 H85        30.4828    1.5554   -1.1556 H         1 UNK         0.0717 
     86 H86        29.4207    0.0880   -3.5314 H         1 UNK         0.0934 
     87 H87        28.4193    1.4225   -3.0336 H         1 UNK         0.0934 
     88 H88        29.5352    1.3038   -5.8777 H         1 UNK         0.0739 
     89 H89        27.5657   -0.5593   -4.8843 H         1 UNK         0.3093 
     90 H90        26.2273   -1.4194   -8.0137 H         1 UNK         0.0818 
     91 H91        28.3910   -2.6820   -8.1165 H         1 UNK         0.0819 
     92 H92        28.2631   -3.0453   -6.4041 H         1 UNK         0.0819 
     93 H93        27.0798   -3.6947   -7.5358 H         1 UNK         0.0819 
     94 H94        26.0791   -2.5925   -5.3808 H         1 UNK         0.3041 
     95 H95        23.3771   -0.4892   -4.2504 H         1 UNK         0.0784 
     96 H96        22.4224   -2.3558   -5.6325 H         1 UNK         0.0793 
     97 H97        23.6025   -3.4677   -4.9488 H         1 UNK         0.0793 
     98 H98        22.3796   -2.7281   -3.9166 H         1 UNK         0.0793 
     99 H99        24.6474   -2.5484   -2.8411 H         1 UNK         0.3024 
    100 H100       27.3833   -0.7837   -1.4476 H         1 UNK         0.1171 
    101 H101       26.2189   -1.3273    0.6817 H         1 UNK         0.0786 
    102 H102       25.4726    0.0415   -0.1272 H         1 UNK         0.0786 
    103 H103       24.6959   -1.5312   -0.1831 H         1 UNK         0.0786 
    104 H104       27.8295   -2.9243   -1.7590 H         1 UNK         0.2977 
    105 H105       26.2433    1.5769   -4.4655 H         1 UNK         0.3127 
    106 H106       25.8778    4.3545   -4.8200 H         1 UNK         0.0770 
    107 H107       23.8041    2.0939   -4.8010 H         1 UNK         0.0814 
    108 H108       23.4541    3.8011   -4.5661 H         1 UNK         0.0814 
    109 H109       24.4258    2.9368   -3.3842 H         1 UNK         0.0814 
    110 H110       25.2439    1.6549   -7.0810 H         1 UNK         0.2983 
    111 H111       24.2032    3.2882   -9.2132 H         1 UNK         0.0947 
    112 H112       24.4433    1.1922  -10.5309 H         1 UNK         0.0806 
    113 H113       23.7222    0.8432   -8.9684 H         1 UNK         0.0806 
    114 H114       25.4221    0.4747   -9.2602 H         1 UNK         0.0806 
    115 H115       27.3714    3.0323   -8.0281 H         1 UNK         0.3000 
    116 H116       29.3996    3.5787   -8.6648 H         1 UNK         0.0850 
    117 H117       29.7487    5.3856  -10.2996 H         1 UNK         0.0810 
    118 H118       28.3453    5.7560   -9.3120 H         1 UNK         0.0810 
    119 H119       28.1365    5.1664  -10.9609 H         1 UNK         0.0810 
    120 H120       28.5751    1.0528   -9.4091 H         1 UNK         0.3040 
    121 H121       29.6077    0.4922  -12.1243 H         1 UNK         0.0766 
    122 H122       27.4914   -0.5809  -11.3410 H         1 UNK         0.0812 
    123 H123       28.3635   -1.3399  -10.0121 H         1 UNK         0.0812 
    124 H124       28.7338   -1.7768  -11.6727 H         1 UNK         0.0812 
    125 H125       31.0744    1.1076   -9.3027 H         1 UNK         0.3205 
    126 H126       33.0848    0.8419   -8.4123 H         1 UNK         0.0754 
    127 H127       34.9860    0.0606   -9.7749 H         1 UNK         0.0769 
    128 H128       33.9687    1.1472  -10.7077 H         1 UNK         0.0769 
    129 H129       33.9027   -0.5908  -10.9920 H         1 UNK         0.0769 
    130 H130       31.8029   -0.4412   -6.9332 H         1 UNK         0.2981 
    131 H131       31.7263   -1.9324   -5.3524 H         1 UNK         0.0541 
    132 H132       30.9969   -4.1906   -4.7526 H         1 UNK         0.3459 
    133 H133       30.1863   -5.0982   -5.9981 H         1 UNK         0.3459 
    134 H134       34.0891   -3.4551   -6.5729 H         1 UNK         0.0612 
    135 H135       33.4573   -3.6732   -4.9712 H         1 UNK         0.0612 
    136 H136       35.4966   -1.3149   -2.9018 H         1 UNK         0.0624 
    137 H137       35.0215   -2.9727   -3.1725 H         1 UNK         0.0624 
@<TRIPOS>BOND
     1    1    2 1    
     2    1   72 1    
     3    1   73 1    
     4    1   74 1    
     5    2    3 2    
     6    2    4 am   BACKBONE|DICT|INTERRES
     7    4    5 1    
     8    4   75 1    
     9    5    6 1    
    10    5   35 1    
    11    5   76 1    
    12    6    7 1    
    13    6   77 1    
    14    6   78 1    
    15    7    8 1    
    16    8    9 1    
    17    8   79 1    
    18    8   80 1    
    19    9   10 ar   
    20    9   14 ar   
    21   10   11 ar   
    22   10   81 1    
    23   11   12 ar   
    24   11   71 1    
    25   12   13 ar   
    26   12   82 1    
    27   13   14 ar   
    28   13   15 1    
    29   14   83 1    
    30   15   16 1    
    31   15   84 1    
    32   15   85 1    
    33   16   17 1    
    34   17   18 1    
    35   17   86 1    
    36   17   87 1    
    37   18   19 1    
    38   18   37 1    
    39   18   88 1    
    40   19   20 am   BACKBONE|DICT|INTERRES
    41   19   89 1    
    42   20   21 2    
    43   20   22 1    
    44   22   23 1    
    45   22   24 1    
    46   22   90 1    
    47   23   91 1    
    48   23   92 1    
    49   23   93 1    
    50   24   25 am   BACKBONE|DICT|INTERRES
    51   24   94 1    
    52   25   26 2    
    53   25   27 1    
    54   27   28 1    
    55   27   29 1    
    56   27   95 1    
    57   28   96 1    
    58   28   97 1    
    59   28   98 1    
    60   29   30 am   BACKBONE|DICT|INTERRES
    61   29   99 1    
    62   30   31 2    
    63   30   32 1    
    64   32   33 1    
    65   32   34 1    
    66   32  100 1    
    67   33  101 1    
    68   33  102 1    
    69   33  103 1    
    70   34   35 am   BACKBONE|DICT|INTERRES
    71   34  104 1    
    72   35   36 2    
    73   37   38 2    
    74   37   39 am   BACKBONE|DICT|INTERRES
    75   39   40 1    
    76   39  105 1    
    77   40   41 1    
    78   40   42 1    
    79   40  106 1    
    80   41  107 1    
    81   41  108 1    
    82   41  109 1    
    83   42   43 2    
    84   42   44 am   BACKBONE|DICT|INTERRES
    85   44   45 1    
    86   44  110 1    
    87   45   46 1    
    88   45   47 1    
    89   45  111 1    
    90   46  112 1    
    91   46  113 1    
    92   46  114 1    
    93   47   48 2    
    94   47   49 am   BACKBONE|DICT|INTERRES
    95   49   50 1    
    96   49  115 1    
    97   50   51 1    
    98   50   52 1    
    99   50  116 1    
   100   51  117 1    
   101   51  118 1    
   102   51  119 1    
   103   52   53 2    
   104   52   54 am   BACKBONE|DICT|INTERRES
   105   54   55 1    
   106   54  120 1    
   107   55   56 1    
   108   55   57 1    
   109   55  121 1    
   110   56  122 1    
   111   56  123 1    
   112   56  124 1    
   113   57   58 2    
   114   57   59 am   BACKBONE|DICT|INTERRES
   115   59   60 1    
   116   59  125 1    
   117   60   61 1    
   118   60   62 1    
   119   60  126 1    
   120   61  127 1    
   121   61  128 1    
   122   61  129 1    
   123   62   63 2    
   124   62   64 am   BACKBONE|DICT|INTERRES
   125   64   65 1    
   126   64  130 1    
   127   65   66 1    
   128   65   69 1    
   129   65  131 1    
   130   66   67 am   BACKBONE|DICT|INTERRES
   131   66   68 2    
   132   67  132 1    
   133   67  133 1    
   134   69   70 1    
   135   69  134 1    
   136   69  135 1    
   137   70   71 1    
   138   71  136 1    
   139   71  137 1    
@<TRIPOS>SUBSTRUCTURE
     1 UNK         1 GROUP             0       ****    0 ROOT    
