@<TRIPOS>MOLECULE
3R137
137   139    1
SMALL
USER_CHARGES


@<TRIPOS>ATOM
      1 CA         27.3622   -0.8814    4.3134 C.3       0 UNK        -0.2020 
      2 C          27.5175   -1.4465    2.9091 C.2       0 UNK         0.4855 
      3 O          27.3210   -2.6459    2.7108 O.2       0 UNK        -0.5197 
      4 N          27.8730   -0.5909    1.9404 N.am      1 UNK        -0.4892 
      5 CA         28.0283   -0.9087    0.5151 C.3       1 UNK         0.0835 
      6 C6         29.1855   -1.9160    0.2476 C.3       12 UNK        -0.0855 
      7 S7         29.8467   -1.8053   -1.4516 S.3       12 UNK        -0.2931 
      8 C8         30.0334   -3.5679   -1.8669 C.3       12 UNK         0.0378 
      9 C9         30.3615   -3.7849   -3.3386 C.ar      12 UNK        -0.0802 
     10 C10        31.5429   -3.2712   -3.8839 C.ar      12 UNK        -0.0944 
     11 C11        31.8808   -3.5286   -5.2157 C.ar      12 UNK        -0.0787 
     12 C12        31.0241   -4.3011   -6.0069 C.ar      12 UNK        -0.0862 
     13 C13        29.8415   -4.8235   -5.4744 C.ar      12 UNK        -0.0733 
     14 C14        29.5136   -4.5557   -4.1417 C.ar      12 UNK        -0.0832 
     15 C15        28.9600   -5.7401   -6.3150 C.3       12 UNK         0.0240 
     16 S16        28.0854   -4.8638   -7.6489 S.3       12 UNK        -0.2522 
     17 C17        26.7981   -3.9610   -6.7234 C.3       12 UNK        -0.0967 
     18 CA         26.3307   -2.6832   -7.4647 C.3       5 UNK         0.0660 
     19 N          25.1158   -2.1281   -6.8737 N.am      5 UNK        -0.4015 
     20 C          24.1656   -1.4783   -7.5590 C.2       4 UNK         0.4946 
     21 O          24.1466   -1.3831   -8.7867 O.2       4 UNK        -0.5353 
     22 CA         23.0458   -0.8050   -6.7421 C.3       4 UNK         0.0277 
     23 CB         21.8361   -1.7448   -6.6134 C.3       4 UNK        -0.1981 
     24 N          23.4631   -0.3661   -5.4064 N.am      4 UNK        -0.4209 
     25 C          24.4051    0.5571   -5.1657 C.2       3 UNK         0.4942 
     26 O          25.0226    1.1541   -6.0456 O.2       3 UNK        -0.5208 
     27 CA         24.7629    0.8213   -3.6943 C.3       3 UNK         0.0250 
     28 CB         23.8031    1.8566   -3.0872 C.3       3 UNK        -0.1990 
     29 N          24.8057   -0.3701   -2.8362 N.am      3 UNK        -0.4232 
     30 C          25.4647   -1.5099   -3.0902 C.2       2 UNK         0.4993 
     31 O          26.0532   -1.7501   -4.1469 O.2       2 UNK        -0.5286 
     32 CA         25.5255   -2.5280   -1.9444 C.3       2 UNK         0.0209 
     33 CB         25.6802   -3.9697   -2.4611 C.3       2 UNK        -0.1931 
     34 N          26.6695   -2.1951   -1.0994 N.am      2 UNK        -0.4546 
     35 C          26.6678   -1.2708   -0.1314 C.2       1 UNK         0.5154 
     36 O          25.6467   -0.6762    0.2261 O.2       1 UNK        -0.5181 
     37 C          27.4208   -1.5995   -7.4857 C.2       5 UNK         0.5014 
     38 O          27.9758   -1.3155   -8.5474 O.2       5 UNK        -0.5248 
     39 N          27.6971   -1.0096   -6.3143 N.am      6 UNK        -0.4434 
     40 CA         28.8116   -0.0940   -6.0794 C.3       6 UNK         0.0363 
     41 CB         28.8701    0.2751   -4.5912 C.3       6 UNK        -0.1936 
     42 C          28.7963    1.1667   -6.9545 C.2       6 UNK         0.5081 
     43 O          29.8553    1.5571   -7.4421 O.2       6 UNK        -0.5248 
     44 N          27.6176    1.7675   -7.1717 N.am      7 UNK        -0.4718 
     45 CA         27.4623    2.9488   -8.0270 C.3       7 UNK         0.0273 
     46 CB         26.1022    3.6118   -7.7599 C.3       7 UNK        -0.1935 
     47 C          27.6188    2.6314   -9.5234 C.2       7 UNK         0.5018 
     48 O          28.0923    3.4875  -10.2707 O.2       7 UNK        -0.5186 
     49 N          27.2308    1.4155   -9.9328 N.am      8 UNK        -0.4240 
     50 CA         27.3640    0.9260  -11.3059 C.3       8 UNK         0.0235 
     51 CB         26.3916   -0.2430  -11.5361 C.3       8 UNK        -0.2000 
     52 C          28.8094    0.5123  -11.6209 C.2       8 UNK         0.4941 
     53 O          29.3235    0.8602  -12.6842 O.2       8 UNK        -0.5273 
     54 N          29.4410   -0.2069  -10.6838 N.am      9 UNK        -0.4262 
     55 CA         30.8288   -0.6655  -10.7703 C.3       9 UNK         0.0264 
     56 CB         31.0114   -1.8467   -9.8044 C.3       9 UNK        -0.1955 
     57 C          31.8688    0.4386  -10.4928 C.2       9 UNK         0.5031 
     58 O          33.0389    0.2441  -10.8255 O.2       9 UNK        -0.5390 
     59 N          31.4332    1.5590   -9.8960 N.am      10 UNK        -0.4204 
     60 CA         32.2258    2.7113   -9.4466 C.3       10 UNK         0.0237 
     61 CB         32.9047    3.4281  -10.6337 C.3       10 UNK        -0.1985 
     62 C          33.2002    2.3389   -8.3115 C.2       10 UNK         0.4970 
     63 O          34.3655    2.7412   -8.3324 O.2       10 UNK        -0.4914 
     64 N          32.6949    1.5654   -7.3455 N.am      11 UNK        -0.4285 
     65 CA         33.4192    1.1130   -6.1515 C.3       11 UNK         0.1007 
     66 C          33.4518    2.2070   -5.0523 C.2       11 UNK         0.5703 
     67 N          34.4892    2.2215   -4.2261 N.am      11 UNK        -0.7361 
     68 O          32.5371    3.0181   -4.9168 O.2       11 UNK        -0.4986 
     69 C69        32.8319   -0.2137   -5.6040 C.3       12 UNK        -0.0947 
     70 S70        32.9638   -1.5548   -6.8321 S.3       12 UNK        -0.2240 
     71 C71        33.1965   -3.0231   -5.7886 C.3       12 UNK         0.0194 
     72 H72        28.0412   -1.3881    4.9988 H         1 UNK         0.0906 
     73 H73        27.5775    0.1863    4.3511 H         1 UNK         0.0906 
     74 H74        26.3433   -1.0343    4.6681 H         1 UNK         0.0906 
     75 H75        27.9846    0.3870    2.1720 H         1 UNK         0.3140 
     76 H76        28.3116    0.0380    0.0516 H         1 UNK         0.1085 
     77 H77        30.0189   -1.7023    0.9190 H         1 UNK         0.0836 
     78 H78        28.8782   -2.9365    0.4836 H         1 UNK         0.0836 
     79 H79        30.8301   -3.9957   -1.2565 H         1 UNK         0.0731 
     80 H80        29.1203   -4.1023   -1.5999 H         1 UNK         0.0731 
     81 H81        32.2079   -2.6867   -3.2628 H         1 UNK         0.1312 
     82 H82        31.2885   -4.5137   -7.0340 H         1 UNK         0.1406 
     83 H83        28.6144   -4.9817   -3.7204 H         1 UNK         0.1631 
     84 H84        29.5849   -6.5144   -6.7622 H         1 UNK         0.0717 
     85 H85        28.2320   -6.2632   -5.6928 H         1 UNK         0.0717 
     86 H86        25.9553   -4.6410   -6.5902 H         1 UNK         0.0934 
     87 H87        27.1543   -3.7259   -5.7188 H         1 UNK         0.0934 
     88 H88        26.1205   -2.9599   -8.5006 H         1 UNK         0.0739 
     89 H89        25.0948   -2.0945   -5.8601 H         1 UNK         0.3093 
     90 H90        22.7325    0.0829   -7.2957 H         1 UNK         0.0818 
     91 H91        20.9983   -1.2498   -6.1218 H         1 UNK         0.0819 
     92 H92        21.4871   -2.0675   -7.5955 H         1 UNK         0.0819 
     93 H93        22.0795   -2.6424   -6.0434 H         1 UNK         0.0819 
     94 H94        23.0153   -0.8087   -4.6171 H         1 UNK         0.3041 
     95 H95        25.7647    1.2525   -3.6833 H         1 UNK         0.0784 
     96 H96        23.7676    2.7614   -3.6962 H         1 UNK         0.0793 
     97 H97        22.7851    1.4716   -3.0151 H         1 UNK         0.0793 
     98 H98        24.1209    2.1550   -2.0879 H         1 UNK         0.0793 
     99 H99        24.4016   -0.2632   -1.9151 H         1 UNK         0.3024 
    100 H100       24.6009   -2.4703   -1.3650 H         1 UNK         0.1171 
    101 H101       25.7106   -4.6841   -1.6383 H         1 UNK         0.0786 
    102 H102       24.8407   -4.2457   -3.1004 H         1 UNK         0.0786 
    103 H103       26.5894   -4.0961   -3.0476 H         1 UNK         0.0786 
    104 H104       27.5661   -2.5626   -1.3877 H         1 UNK         0.2977 
    105 H105       27.1588   -1.2848   -5.4939 H         1 UNK         0.3127 
    106 H106       29.7204   -0.6465   -6.3267 H         1 UNK         0.0770 
    107 H107       27.9726    0.8022   -4.2707 H         1 UNK         0.0814 
    108 H108       29.7228    0.9213   -4.3787 H         1 UNK         0.0814 
    109 H109       28.9744   -0.6161   -3.9736 H         1 UNK         0.0814 
    110 H110       26.7726    1.3995   -6.7386 H         1 UNK         0.2983 
    111 H111       28.2438    3.6643   -7.7606 H         1 UNK         0.0947 
    112 H112       25.9978    4.5330   -8.3347 H         1 UNK         0.0806 
    113 H113       25.9859    3.8705   -6.7073 H         1 UNK         0.0806 
    114 H114       25.2736    2.9592   -8.0378 H         1 UNK         0.0806 
    115 H115       26.8995    0.7574   -9.2404 H         1 UNK         0.3000 
    116 H116       27.0897    1.7318  -11.9906 H         1 UNK         0.0850 
    117 H117       26.4581   -0.6087  -12.5616 H         1 UNK         0.0810 
    118 H118       25.3586    0.0618  -11.3667 H         1 UNK         0.0810 
    119 H119       26.6004   -1.0854  -10.8756 H         1 UNK         0.0810 
    120 H120       28.9168   -0.5038   -9.8602 H         1 UNK         0.3040 
    121 H121       31.0090   -1.0278  -11.7846 H         1 UNK         0.0766 
    122 H122       30.3655   -2.6827  -10.0734 H         1 UNK         0.0812 
    123 H123       30.7718   -1.5628   -8.7792 H         1 UNK         0.0812 
    124 H124       32.0390   -2.2123   -9.8147 H         1 UNK         0.0812 
    125 H125       30.4673    1.5673   -9.5932 H         1 UNK         0.3205 
    126 H126       31.5119    3.4117   -9.0100 H         1 UNK         0.0754 
    127 H127       33.3757    4.3568  -10.3094 H         1 UNK         0.0769 
    128 H128       32.1807    3.6848  -11.4071 H         1 UNK         0.0769 
    129 H129       33.6813    2.8143  -11.0909 H         1 UNK         0.0769 
    130 H130       31.6980    1.3663   -7.3680 H         1 UNK         0.2981 
    131 H131       34.4532    0.9190   -6.4448 H         1 UNK         0.0541 
    132 H132       34.5237    2.9163   -3.4967 H         1 UNK         0.3459 
    133 H133       35.2413    1.5567   -4.3201 H         1 UNK         0.3459 
    134 H134       33.3602   -0.5157   -4.6982 H         1 UNK         0.0612 
    135 H135       31.7858   -0.0935   -5.3229 H         1 UNK         0.0612 
    136 H136       33.9139   -2.8076   -4.9954 H         1 UNK         0.0624 
    137 H137       33.6472   -3.8092   -6.3960 H         1 UNK         0.0624 
@<TRIPOS>BOND
     1    1    2 1    
     2    1   72 1    
     3    1   73 1    
     4    1   74 1    
     5    2    3 2    
     6    2    4 am   BACKBONE|DICT|INTERRES
     7    4    5 1    
     8    4   75 1    
     9    5    6 1    
    10    5   35 1    
    11    5   76 1    
    12    6    7 1    
    13    6   77 1    
    14    6   78 1    
    15    7    8 1    
    16    8    9 1    
    17    8   79 1    
    18    8   80 1    
    19    9   10 ar   
    20    9   14 ar   
    21   10   11 ar   
    22   10   81 1    
    23   11   12 ar   
    24   11   71 1    
    25   12   13 ar   
    26   12   82 1    
    27   13   14 ar   
    28   13   15 1    
    29   14   83 1    
    30   15   16 1    
    31   15   84 1    
    32   15   85 1    
    33   16   17 1    
    34   17   18 1    
    35   17   86 1    
    36   17   87 1    
    37   18   19 1    
    38   18   37 1    
    39   18   88 1    
    40   19   20 am   BACKBONE|DICT|INTERRES
    41   19   89 1    
    42   20   21 2    
    43   20   22 1    
    44   22   23 1    
    45   22   24 1    
    46   22   90 1    
    47   23   91 1    
    48   23   92 1    
    49   23   93 1    
    50   24   25 am   BACKBONE|DICT|INTERRES
    51   24   94 1    
    52   25   26 2    
    53   25   27 1    
    54   27   28 1    
    55   27   29 1    
    56   27   95 1    
    57   28   96 1    
    58   28   97 1    
    59   28   98 1    
    60   29   30 am   BACKBONE|DICT|INTERRES
    61   29   99 1    
    62   30   31 2    
    63   30   32 1    
    64   32   33 1    
    65   32   34 1    
    66   32  100 1    
    67   33  101 1    
    68   33  102 1    
    69   33  103 1    
    70   34   35 am   BACKBONE|DICT|INTERRES
    71   34  104 1    
    72   35   36 2    
    73   37   38 2    
    74   37   39 am   BACKBONE|DICT|INTERRES
    75   39   40 1    
    76   39  105 1    
    77   40   41 1    
    78   40   42 1    
    79   40  106 1    
    80   41  107 1    
    81   41  108 1    
    82   41  109 1    
    83   42   43 2    
    84   42   44 am   BACKBONE|DICT|INTERRES
    85   44   45 1    
    86   44  110 1    
    87   45   46 1    
    88   45   47 1    
    89   45  111 1    
    90   46  112 1    
    91   46  113 1    
    92   46  114 1    
    93   47   48 2    
    94   47   49 am   BACKBONE|DICT|INTERRES
    95   49   50 1    
    96   49  115 1    
    97   50   51 1    
    98   50   52 1    
    99   50  116 1    
   100   51  117 1    
   101   51  118 1    
   102   51  119 1    
   103   52   53 2    
   104   52   54 am   BACKBONE|DICT|INTERRES
   105   54   55 1    
   106   54  120 1    
   107   55   56 1    
   108   55   57 1    
   109   55  121 1    
   110   56  122 1    
   111   56  123 1    
   112   56  124 1    
   113   57   58 2    
   114   57   59 am   BACKBONE|DICT|INTERRES
   115   59   60 1    
   116   59  125 1    
   117   60   61 1    
   118   60   62 1    
   119   60  126 1    
   120   61  127 1    
   121   61  128 1    
   122   61  129 1    
   123   62   63 2    
   124   62   64 am   BACKBONE|DICT|INTERRES
   125   64   65 1    
   126   64  130 1    
   127   65   66 1    
   128   65   69 1    
   129   65  131 1    
   130   66   67 am   BACKBONE|DICT|INTERRES
   131   66   68 2    
   132   67  132 1    
   133   67  133 1    
   134   69   70 1    
   135   69  134 1    
   136   69  135 1    
   137   70   71 1    
   138   71  136 1    
   139   71  137 1    
@<TRIPOS>SUBSTRUCTURE
     1 UNK         1 GROUP             0       ****    0 ROOT    
