@<TRIPOS>MOLECULE
3R137
137   139    1
SMALL
USER_CHARGES


@<TRIPOS>ATOM
      1 CA         25.9634   -6.8248   -6.6160 C.3       0 UNK        -0.2020 
      2 C          25.2838   -6.0912   -5.4695 C.2       0 UNK         0.4855 
      3 O          24.1660   -6.4435   -5.0919 O.2       0 UNK        -0.5197 
      4 N          25.9542   -5.0775   -4.9095 N.am      1 UNK        -0.4892 
      5 CA         25.4321   -4.2093   -3.8519 C.3       1 UNK         0.0835 
      6 C6         26.5643   -3.4087   -3.1559 C.3       12 UNK        -0.0855 
      7 S7         27.5215   -4.4378   -1.9953 S.3       12 UNK        -0.2931 
      8 C8         28.9012   -5.0489   -3.0196 C.3       12 UNK         0.0378 
      9 C9         29.9565   -3.9907   -3.3203 C.ar      12 UNK        -0.0802 
     10 C10        30.3460   -3.7410   -4.6404 C.ar      12 UNK        -0.0944 
     11 C11        31.3794   -2.8408   -4.9197 C.ar      12 UNK        -0.0787 
     12 C12        32.0078   -2.1664   -3.8681 C.ar      12 UNK        -0.0862 
     13 C13        31.6152   -2.3920   -2.5449 C.ar      12 UNK        -0.0733 
     14 C14        30.5986   -3.3145   -2.2776 C.ar      12 UNK        -0.0832 
     15 C15        32.2920   -1.6472   -1.4018 C.3       12 UNK         0.0240 
     16 S16        31.1682   -0.4583   -0.5970 S.3       12 UNK        -0.2522 
     17 C17        30.8660    0.7417   -1.9395 C.3       12 UNK        -0.0967 
     18 CA         29.5830    0.4106   -2.7495 C.3       5 UNK         0.0660 
     19 N          28.3693    0.3294   -1.9320 N.am      5 UNK        -0.4015 
     20 C          27.7132    1.3417   -1.3505 C.2       4 UNK         0.4946 
     21 O          28.0814    2.5182   -1.3622 O.2       4 UNK        -0.5353 
     22 CA         26.3861    0.9626   -0.6697 C.3       4 UNK         0.0277 
     23 CB         26.1818    1.7434    0.6412 C.3       4 UNK        -0.1981 
     24 N          25.2164    1.1632   -1.5338 N.am      4 UNK        -0.4209 
     25 C          25.0162    0.6251   -2.7455 C.2       3 UNK         0.4942 
     26 O          25.8483   -0.0507   -3.3579 O.2       3 UNK        -0.5208 
     27 CA         23.6376    0.8542   -3.3736 C.3       3 UNK         0.0250 
     28 CB         23.6896    1.9279   -4.4701 C.3       3 UNK        -0.1990 
     29 N          23.2208   -0.4153   -3.9561 N.am      3 UNK        -0.4232 
     30 C          22.0698   -1.0496   -3.7192 C.2       2 UNK         0.4993 
     31 O          21.1295   -0.5537   -3.0970 O.2       2 UNK        -0.5286 
     32 CA         21.9559   -2.5031   -4.2140 C.3       2 UNK         0.0209 
     33 CB         21.5722   -2.5645   -5.7065 C.3       2 UNK        -0.1931 
     34 N          23.1371   -3.3298   -3.9066 N.am      2 UNK        -0.4546 
     35 C          24.3668   -3.2628   -4.4386 C.2       1 UNK         0.5154 
     36 O          24.6854   -2.4756   -5.3306 O.2       1 UNK        -0.5181 
     37 C          29.3905    1.3150   -3.9851 C.2       5 UNK         0.5014 
     38 O          30.2710    2.1120   -4.3136 O.2       5 UNK        -0.5248 
     39 N          28.2384    1.1694   -4.6513 N.am      6 UNK        -0.4434 
     40 CA         27.8896    1.8837   -5.8767 C.3       6 UNK         0.0363 
     41 CB         27.2051    3.2200   -5.5301 C.3       6 UNK        -0.1936 
     42 C          27.0586    0.9799   -6.7994 C.2       6 UNK         0.5081 
     43 O          26.1079    1.4479   -7.4270 O.2       6 UNK        -0.5248 
     44 N          27.4363   -0.3056   -6.8744 N.am      7 UNK        -0.4718 
     45 CA         26.8172   -1.3045   -7.7555 C.3       7 UNK         0.0273 
     46 CB         27.3159   -2.7054   -7.3643 C.3       7 UNK        -0.1935 
     47 C          27.0965   -1.0389   -9.2462 C.2       7 UNK         0.5018 
     48 O          26.2795   -1.3959  -10.0959 O.2       7 UNK        -0.5186 
     49 N          28.2408   -0.4088   -9.5245 N.am      8 UNK        -0.4240 
     50 CA         28.7057    0.0513  -10.8244 C.3       8 UNK         0.0235 
     51 CB         29.3519   -1.1185  -11.5905 C.3       8 UNK        -0.2000 
     52 C          29.7198    1.1721  -10.5697 C.2       8 UNK         0.4941 
     53 O          30.1973    1.3169   -9.4404 O.2       8 UNK        -0.5273 
     54 N          30.0831    1.9125  -11.6263 N.am      9 UNK        -0.4262 
     55 CA         31.1042    2.9710  -11.5874 C.3       9 UNK         0.0264 
     56 CB         31.1823    3.6592  -12.9597 C.3       9 UNK        -0.1955 
     57 C          32.4973    2.4738  -11.1525 C.2       9 UNK         0.5031 
     58 O          33.2536    3.2341  -10.5461 O.2       9 UNK        -0.5390 
     59 N          32.7847    1.1919  -11.4220 N.am      10 UNK        -0.4204 
     60 CA         33.9791    0.4678  -10.9832 C.3       10 UNK         0.0237 
     61 CB         33.9818   -0.9266  -11.6315 C.3       10 UNK        -0.1985 
     62 C          34.1238    0.3456   -9.4533 C.2       10 UNK         0.4970 
     63 O          35.2432    0.1312   -8.9860 O.2       10 UNK        -0.4914 
     64 N          33.0214    0.4853   -8.7014 N.am      11 UNK        -0.4285 
     65 CA         33.0300    0.5109   -7.2307 C.3       11 UNK         0.1007 
     66 C          33.5845    1.8332   -6.6231 C.2       11 UNK         0.5703 
     67 N          33.7630    2.9028   -7.3926 N.am      11 UNK        -0.7361 
     68 O          33.8807    1.8807   -5.4318 O.2       11 UNK        -0.4986 
     69 C69        31.6458    0.1626   -6.6213 C.3       12 UNK        -0.0947 
     70 S70        30.9141   -1.3834   -7.2521 S.3       12 UNK        -0.2240 
     71 C71        31.8578   -2.6516   -6.3526 C.3       12 UNK         0.0194 
     72 H72        26.0876   -7.8782   -6.3661 H         1 UNK         0.0906 
     73 H73        25.3539   -6.7579   -7.5168 H         1 UNK         0.0906 
     74 H74        26.9464   -6.4115   -6.8411 H         1 UNK         0.0906 
     75 H75        26.8535   -4.8151   -5.2815 H         1 UNK         0.3140 
     76 H76        24.9494   -4.8406   -3.1021 H         1 UNK         0.1085 
     77 H77        27.2276   -2.9316   -3.8794 H         1 UNK         0.0836 
     78 H78        26.1429   -2.5962   -2.5608 H         1 UNK         0.0836 
     79 H79        29.3852   -5.8671   -2.4847 H         1 UNK         0.0731 
     80 H80        28.5083   -5.4857   -3.9376 H         1 UNK         0.0731 
     81 H81        29.8721   -4.2739   -5.4534 H         1 UNK         0.1312 
     82 H82        32.8100   -1.4726   -4.0799 H         1 UNK         0.1406 
     83 H83        30.3056   -3.5056   -1.2538 H         1 UNK         0.1631 
     84 H84        33.1839   -1.1226   -1.7483 H         1 UNK         0.0717 
     85 H85        32.6324   -2.3686   -0.6576 H         1 UNK         0.0717 
     86 H86        30.7908    1.7385   -1.5016 H         1 UNK         0.0934 
     87 H87        31.7413    0.7648   -2.5919 H         1 UNK         0.0934 
     88 H88        29.7056   -0.5874   -3.1684 H         1 UNK         0.0739 
     89 H89        27.9446   -0.5859   -1.8918 H         1 UNK         0.3093 
     90 H90        26.4252   -0.0989   -0.4155 H         1 UNK         0.0818 
     91 H91        25.3029    1.3919    1.1819 H         1 UNK         0.0819 
     92 H92        27.0387    1.6208    1.3051 H         1 UNK         0.0819 
     93 H93        26.0607    2.8126    0.4614 H         1 UNK         0.0819 
     94 H94        24.4772    1.7272   -1.1399 H         1 UNK         0.3041 
     95 H95        22.9376    1.1686   -2.5965 H         1 UNK         0.0784 
     96 H96        22.7050    2.0882   -4.9097 H         1 UNK         0.0793 
     97 H97        24.0250    2.8841   -4.0675 H         1 UNK         0.0793 
     98 H98        24.3692    1.6467   -5.2751 H         1 UNK         0.0793 
     99 H99        23.9511   -0.9262   -4.4491 H         1 UNK         0.3024 
    100 H100       21.1333   -2.9523   -3.6542 H         1 UNK         0.1171 
    101 H101       22.3139   -2.0829   -6.3441 H         1 UNK         0.0786 
    102 H102       20.6222   -2.0580   -5.8819 H         1 UNK         0.0786 
    103 H103       21.4579   -3.5946   -6.0442 H         1 UNK         0.0786 
    104 H104       22.9884   -4.0086   -3.1719 H         1 UNK         0.2977 
    105 H105       27.5243    0.5421   -4.2858 H         1 UNK         0.3127 
    106 H106       28.7996    2.1097   -6.4367 H         1 UNK         0.0770 
    107 H107       26.3079    3.0672   -4.9328 H         1 UNK         0.0814 
    108 H108       26.9172    3.7643   -6.4303 H         1 UNK         0.0814 
    109 H109       27.8736    3.8676   -4.9627 H         1 UNK         0.0814 
    110 H110       28.2360   -0.6075   -6.3363 H         1 UNK         0.2983 
    111 H111       25.7364   -1.2651   -7.6016 H         1 UNK         0.0947 
    112 H112       26.7539   -3.4760   -7.8933 H         1 UNK         0.0806 
    113 H113       27.1893   -2.8841   -6.2985 H         1 UNK         0.0806 
    114 H114       28.3695   -2.8475   -7.6046 H         1 UNK         0.0806 
    115 H115       28.8406   -0.1199   -8.7598 H         1 UNK         0.3000 
    116 H116       27.8636    0.4573  -11.3888 H         1 UNK         0.0850 
    117 H117       30.2058   -1.5293  -11.0496 H         1 UNK         0.0810 
    118 H118       28.6401   -1.9286  -11.7504 H         1 UNK         0.0810 
    119 H119       29.7041   -0.8042  -12.5734 H         1 UNK         0.0810 
    120 H120       29.6459    1.7365  -12.5202 H         1 UNK         0.3040 
    121 H121       30.7820    3.7104  -10.8510 H         1 UNK         0.0766 
    122 H122       30.2255    4.1014  -13.2378 H         1 UNK         0.0812 
    123 H123       31.4733    2.9622  -13.7467 H         1 UNK         0.0812 
    124 H124       31.9179    4.4649  -12.9501 H         1 UNK         0.0812 
    125 H125       32.0962    0.6566  -11.9294 H         1 UNK         0.3205 
    126 H126       34.8491    1.0189  -11.3463 H         1 UNK         0.0754 
    127 H127       34.8772   -1.4850  -11.3542 H         1 UNK         0.0769 
    128 H128       33.9697   -0.8601  -12.7197 H         1 UNK         0.0769 
    129 H129       33.1198   -1.5182  -11.3197 H         1 UNK         0.0769 
    130 H130       32.1266    0.6813   -9.1363 H         1 UNK         0.2981 
    131 H131       33.7228   -0.2655   -6.9029 H         1 UNK         0.0541 
    132 H132       34.1307    3.7460   -6.9820 H         1 UNK         0.3459 
    133 H133       33.5403    2.8788   -8.3793 H         1 UNK         0.3459 
    134 H134       30.9381    0.9657   -6.8304 H         1 UNK         0.0612 
    135 H135       31.7116    0.0969   -5.5355 H         1 UNK         0.0612 
    136 H136       31.7607   -3.5943   -6.8931 H         1 UNK         0.0624 
    137 H137       32.9205   -2.4082   -6.3722 H         1 UNK         0.0624 
@<TRIPOS>BOND
     1    1    2 1    
     2    1   72 1    
     3    1   73 1    
     4    1   74 1    
     5    2    3 2    
     6    2    4 am   BACKBONE|DICT|INTERRES
     7    4    5 1    
     8    4   75 1    
     9    5    6 1    
    10    5   35 1    
    11    5   76 1    
    12    6    7 1    
    13    6   77 1    
    14    6   78 1    
    15    7    8 1    
    16    8    9 1    
    17    8   79 1    
    18    8   80 1    
    19    9   10 ar   
    20    9   14 ar   
    21   10   11 ar   
    22   10   81 1    
    23   11   12 ar   
    24   11   71 1    
    25   12   13 ar   
    26   12   82 1    
    27   13   14 ar   
    28   13   15 1    
    29   14   83 1    
    30   15   16 1    
    31   15   84 1    
    32   15   85 1    
    33   16   17 1    
    34   17   18 1    
    35   17   86 1    
    36   17   87 1    
    37   18   19 1    
    38   18   37 1    
    39   18   88 1    
    40   19   20 am   BACKBONE|DICT|INTERRES
    41   19   89 1    
    42   20   21 2    
    43   20   22 1    
    44   22   23 1    
    45   22   24 1    
    46   22   90 1    
    47   23   91 1    
    48   23   92 1    
    49   23   93 1    
    50   24   25 am   BACKBONE|DICT|INTERRES
    51   24   94 1    
    52   25   26 2    
    53   25   27 1    
    54   27   28 1    
    55   27   29 1    
    56   27   95 1    
    57   28   96 1    
    58   28   97 1    
    59   28   98 1    
    60   29   30 am   BACKBONE|DICT|INTERRES
    61   29   99 1    
    62   30   31 2    
    63   30   32 1    
    64   32   33 1    
    65   32   34 1    
    66   32  100 1    
    67   33  101 1    
    68   33  102 1    
    69   33  103 1    
    70   34   35 am   BACKBONE|DICT|INTERRES
    71   34  104 1    
    72   35   36 2    
    73   37   38 2    
    74   37   39 am   BACKBONE|DICT|INTERRES
    75   39   40 1    
    76   39  105 1    
    77   40   41 1    
    78   40   42 1    
    79   40  106 1    
    80   41  107 1    
    81   41  108 1    
    82   41  109 1    
    83   42   43 2    
    84   42   44 am   BACKBONE|DICT|INTERRES
    85   44   45 1    
    86   44  110 1    
    87   45   46 1    
    88   45   47 1    
    89   45  111 1    
    90   46  112 1    
    91   46  113 1    
    92   46  114 1    
    93   47   48 2    
    94   47   49 am   BACKBONE|DICT|INTERRES
    95   49   50 1    
    96   49  115 1    
    97   50   51 1    
    98   50   52 1    
    99   50  116 1    
   100   51  117 1    
   101   51  118 1    
   102   51  119 1    
   103   52   53 2    
   104   52   54 am   BACKBONE|DICT|INTERRES
   105   54   55 1    
   106   54  120 1    
   107   55   56 1    
   108   55   57 1    
   109   55  121 1    
   110   56  122 1    
   111   56  123 1    
   112   56  124 1    
   113   57   58 2    
   114   57   59 am   BACKBONE|DICT|INTERRES
   115   59   60 1    
   116   59  125 1    
   117   60   61 1    
   118   60   62 1    
   119   60  126 1    
   120   61  127 1    
   121   61  128 1    
   122   61  129 1    
   123   62   63 2    
   124   62   64 am   BACKBONE|DICT|INTERRES
   125   64   65 1    
   126   64  130 1    
   127   65   66 1    
   128   65   69 1    
   129   65  131 1    
   130   66   67 am   BACKBONE|DICT|INTERRES
   131   66   68 2    
   132   67  132 1    
   133   67  133 1    
   134   69   70 1    
   135   69  134 1    
   136   69  135 1    
   137   70   71 1    
   138   71  136 1    
   139   71  137 1    
@<TRIPOS>SUBSTRUCTURE
     1 UNK         1 GROUP             0       ****    0 ROOT    
