@<TRIPOS>MOLECULE
3R137
137   139    1
SMALL
USER_CHARGES


@<TRIPOS>ATOM
      1 CA         30.3972   -5.2488   -1.5857 C.3       0 UNK        -0.2020 
      2 C          29.1650   -4.8124   -0.8079 C.2       0 UNK         0.4855 
      3 O          28.4622   -5.6571   -0.2533 O.2       0 UNK        -0.5197 
      4 N          28.9049   -3.4991   -0.7497 N.am      1 UNK        -0.4892 
      5 CA         27.8102   -2.8994    0.0244 C.3       1 UNK         0.0835 
      6 C6         28.0726   -1.3924    0.3008 C.3       12 UNK        -0.0855 
      7 S7         27.6635   -0.2552   -1.0733 S.3       12 UNK        -0.2931 
      8 C8         29.2602    0.5128   -1.5110 C.3       12 UNK         0.0378 
      9 C9         30.1660   -0.2827   -2.4543 C.ar      12 UNK        -0.0802 
     10 C10        31.4661    0.1925   -2.6539 C.ar      12 UNK        -0.0944 
     11 C11        32.3515   -0.4715   -3.5053 C.ar      12 UNK        -0.0787 
     12 C12        31.9380   -1.6385   -4.1501 C.ar      12 UNK        -0.0862 
     13 C13        30.6440   -2.1309   -3.9664 C.ar      12 UNK        -0.0733 
     14 C14        29.7527   -1.4361   -3.1392 C.ar      12 UNK        -0.0832 
     15 C15        30.2444   -3.4379   -4.6364 C.3       12 UNK         0.0240 
     16 S16        29.6826   -3.1966   -6.3461 S.3       12 UNK        -0.2522 
     17 C17        27.9094   -2.8950   -6.0832 C.3       12 UNK        -0.0967 
     18 CA         27.3079   -1.8262   -7.0232 C.3       5 UNK         0.0660 
     19 N          25.8461   -1.8882   -7.0000 N.am      5 UNK        -0.4015 
     20 C          25.0260   -1.2655   -7.8564 C.2       4 UNK         0.4946 
     21 O          25.4094   -0.5898   -8.8107 O.2       4 UNK        -0.5353 
     22 CA         23.5197   -1.3913   -7.5699 C.3       4 UNK         0.0277 
     23 CB         22.9558   -2.6785   -8.1921 C.3       4 UNK        -0.1981 
     24 N          23.2137   -1.3598   -6.1353 N.am      4 UNK        -0.4209 
     25 C          23.3926   -0.2832   -5.3562 C.2       3 UNK         0.4942 
     26 O          23.7876    0.8029   -5.7773 O.2       3 UNK        -0.5208 
     27 CA         23.1282   -0.4526   -3.8505 C.3       3 UNK         0.0250 
     28 CB         21.6414   -0.2240   -3.5354 C.3       3 UNK        -0.1990 
     29 N          23.5558   -1.7472   -3.3051 N.am      3 UNK        -0.4232 
     30 C          24.8187   -2.1955   -3.3084 C.2       2 UNK         0.4993 
     31 O          25.7522   -1.6076   -3.8611 O.2       2 UNK        -0.5286 
     32 CA         25.0779   -3.5479   -2.6283 C.3       2 UNK         0.0209 
     33 CB         25.1934   -4.6651   -3.6778 C.3       2 UNK        -0.1931 
     34 N          26.3229   -3.4770   -1.8637 N.am      2 UNK        -0.4546 
     35 C          26.4008   -3.1623   -0.5628 C.2       1 UNK         0.5154 
     36 O          25.4154   -3.0541    0.1699 O.2       1 UNK        -0.5181 
     37 C          27.8064   -0.4036   -6.7022 C.2       5 UNK         0.5014 
     38 O          28.6862    0.0994   -7.4042 O.2       5 UNK        -0.5248 
     39 N          27.1918    0.2325   -5.6920 N.am      6 UNK        -0.4434 
     40 CA         27.4165    1.6317   -5.3238 C.3       6 UNK         0.0363 
     41 CB         26.6418    1.9638   -4.0400 C.3       6 UNK        -0.1936 
     42 C          27.0231    2.6104   -6.4415 C.2       6 UNK         0.5081 
     43 O          27.7954    3.5199   -6.7412 O.2       6 UNK        -0.5248 
     44 N          25.8451    2.3988   -7.0479 N.am      7 UNK        -0.4718 
     45 CA         25.3184    3.2007   -8.1571 C.3       7 UNK         0.0273 
     46 CB         23.8663    2.7919   -8.4501 C.3       7 UNK        -0.1935 
     47 C          26.1767    3.1069   -9.4289 C.2       7 UNK         0.5018 
     48 O          26.4070    4.1275  -10.0786 O.2       7 UNK        -0.5186 
     49 N          26.6573    1.8961   -9.7441 N.am      8 UNK        -0.4240 
     50 CA         27.6060    1.6414  -10.8312 C.3       8 UNK         0.0235 
     51 CB         27.6265    0.1336  -11.1326 C.3       8 UNK        -0.2000 
     52 C          29.0325    2.1359  -10.5260 C.2       8 UNK         0.4941 
     53 O          29.8078    2.3258  -11.4640 O.2       8 UNK        -0.5273 
     54 N          29.3566    2.2974   -9.2331 N.am      9 UNK        -0.4262 
     55 CA         30.6808    2.5638   -8.6592 C.3       9 UNK         0.0264 
     56 CB         31.1818    3.9714   -9.0438 C.3       9 UNK        -0.1955 
     57 C          31.6828    1.4449   -9.0016 C.2       9 UNK         0.5031 
     58 O          32.8409    1.7203   -9.3253 O.2       9 UNK        -0.5390 
     59 N          31.2119    0.1916   -8.9457 N.am      10 UNK        -0.4204 
     60 CA         31.9273   -1.0043   -9.3982 C.3       10 UNK         0.0237 
     61 CB         30.8994   -2.0633   -9.8374 C.3       10 UNK        -0.1985 
     62 C          32.9408   -1.5226   -8.3586 C.2       10 UNK         0.4970 
     63 O          32.9353   -2.7072   -8.0205 O.2       10 UNK        -0.4914 
     64 N          33.8028   -0.6205   -7.8791 N.am      11 UNK        -0.4285 
     65 CA         34.8715   -0.8962   -6.9071 C.3       11 UNK         0.1007 
     66 C          36.1367   -1.5682   -7.5149 C.2       11 UNK         0.5703 
     67 N          36.2669   -1.6836   -8.8317 N.am      11 UNK        -0.7361 
     68 O          37.0147   -2.0042   -6.7740 O.2       11 UNK        -0.4986 
     69 C69        35.2456    0.3711   -6.0934 C.3       12 UNK        -0.0947 
     70 S70        33.8180    1.1009   -5.2237 S.3       12 UNK        -0.2240 
     71 C71        33.7546    0.0690   -3.7262 C.3       12 UNK         0.0194 
     72 H72        31.0219   -5.8906   -0.9650 H         1 UNK         0.0906 
     73 H73        31.0030   -4.3998   -1.9016 H         1 UNK         0.0906 
     74 H74        30.1049   -5.8146   -2.4697 H         1 UNK         0.0906 
     75 H75        29.5268   -2.8442   -1.2035 H         1 UNK         0.3140 
     76 H76        27.8148   -3.3980    0.9968 H         1 UNK         0.1085 
     77 H77        29.1070   -1.2403    0.6129 H         1 UNK         0.0836 
     78 H78        27.4699   -1.0798    1.1555 H         1 UNK         0.0836 
     79 H79        29.0454    1.4701   -1.9878 H         1 UNK         0.0731 
     80 H80        29.8007    0.7478   -0.5928 H         1 UNK         0.0731 
     81 H81        31.7900    1.0929   -2.1493 H         1 UNK         0.1312 
     82 H82        32.6219   -2.1646   -4.8018 H         1 UNK         0.1406 
     83 H83        28.7415   -1.7993   -3.0296 H         1 UNK         0.1631 
     84 H84        29.4709   -3.9487   -4.0620 H         1 UNK         0.0717 
     85 H85        31.1008   -4.1140   -4.6500 H         1 UNK         0.0717 
     86 H86        27.4086   -3.8506   -6.2451 H         1 UNK         0.0934 
     87 H87        27.7310   -2.6352   -5.0409 H         1 UNK         0.0934 
     88 H88        27.6191   -2.0574   -8.0445 H         1 UNK         0.0739 
     89 H89        25.4346   -2.3647   -6.2117 H         1 UNK         0.3093 
     90 H90        23.0224   -0.5399   -8.0395 H         1 UNK         0.0818 
     91 H91        23.1585   -2.7132   -9.2636 H         1 UNK         0.0819 
     92 H92        23.3955   -3.5726   -7.7484 H         1 UNK         0.0819 
     93 H93        21.8744   -2.7382   -8.0677 H         1 UNK         0.0819 
     94 H94        22.8683   -2.2100   -5.7141 H         1 UNK         0.3041 
     95 H95        23.7050    0.3192   -3.3361 H         1 UNK         0.0784 
     96 H96        21.3067    0.7426   -3.9151 H         1 UNK         0.0793 
     97 H97        21.0082   -0.9886   -3.9874 H         1 UNK         0.0793 
     98 H98        21.4581   -0.2272   -2.4607 H         1 UNK         0.0793 
     99 H99        22.8434   -2.2982   -2.8474 H         1 UNK         0.3024 
    100 H100       24.2443   -3.7830   -1.9624 H         1 UNK         0.1171 
    101 H101       24.2833   -4.7400   -4.2745 H         1 UNK         0.0786 
    102 H102       26.0228   -4.4960   -4.3636 H         1 UNK         0.0786 
    103 H103       25.3485   -5.6344   -3.2034 H         1 UNK         0.0786 
    104 H104       27.1798   -3.5036   -2.3932 H         1 UNK         0.2977 
    105 H105       26.5178   -0.2846   -5.1338 H         1 UNK         0.3127 
    106 H106       28.4839    1.7489   -5.1239 H         1 UNK         0.0770 
    107 H107       25.5641    1.9748   -4.2016 H         1 UNK         0.0814 
    108 H108       26.9239    2.9458   -3.6586 H         1 UNK         0.0814 
    109 H109       26.8448    1.2379   -3.2583 H         1 UNK         0.0814 
    110 H110       25.2379    1.6655   -6.6887 H         1 UNK         0.2983 
    111 H111       25.3201    4.2451   -7.8374 H         1 UNK         0.0947 
    112 H112       23.7949    1.7468   -8.7522 H         1 UNK         0.0806 
    113 H113       23.4452    3.3949   -9.2557 H         1 UNK         0.0806 
    114 H114       23.2312    2.9307   -7.5750 H         1 UNK         0.0806 
    115 H115       26.3533    1.0905   -9.2025 H         1 UNK         0.3000 
    116 H116       27.2581    2.1668  -11.7232 H         1 UNK         0.0850 
    117 H117       28.3091   -0.0945  -11.9524 H         1 UNK         0.0810 
    118 H118       26.6390   -0.2261  -11.4225 H         1 UNK         0.0810 
    119 H119       27.9504   -0.4444  -10.2659 H         1 UNK         0.0810 
    120 H120       28.6414    2.0778   -8.5503 H         1 UNK         0.3040 
    121 H121       30.5535    2.5400   -7.5757 H         1 UNK         0.0766 
    122 H122       31.3838    4.0529  -10.1121 H         1 UNK         0.0812 
    123 H123       32.1071    4.2117   -8.5190 H         1 UNK         0.0812 
    124 H124       30.4509    4.7358   -8.7798 H         1 UNK         0.0812 
    125 H125       30.2797    0.0543   -8.5610 H         1 UNK         0.3205 
    126 H126       32.5087   -0.7407  -10.2843 H         1 UNK         0.0754 
    127 H127       31.3906   -2.9743  -10.1817 H         1 UNK         0.0769 
    128 H128       30.2868   -1.6979  -10.6617 H         1 UNK         0.0769 
    129 H129       30.2297   -2.3375   -9.0240 H         1 UNK         0.0769 
    130 H130       33.7345    0.3314   -8.2250 H         1 UNK         0.2981 
    131 H131       34.4808   -1.6263   -6.1971 H         1 UNK         0.0541 
    132 H132       37.0898   -2.1260   -9.2096 H         1 UNK         0.3459 
    133 H133       35.5551   -1.3281   -9.4490 H         1 UNK         0.3459 
    134 H134       35.6598    1.1335   -6.7555 H         1 UNK         0.0612 
    135 H135       36.0244    0.1530   -5.3601 H         1 UNK         0.0612 
    136 H136       34.4563   -0.7630   -3.7994 H         1 UNK         0.0624 
    137 H137       34.0767    0.6644   -2.8707 H         1 UNK         0.0624 
@<TRIPOS>BOND
     1    1    2 1    
     2    1   72 1    
     3    1   73 1    
     4    1   74 1    
     5    2    3 2    
     6    2    4 am   BACKBONE|DICT|INTERRES
     7    4    5 1    
     8    4   75 1    
     9    5    6 1    
    10    5   35 1    
    11    5   76 1    
    12    6    7 1    
    13    6   77 1    
    14    6   78 1    
    15    7    8 1    
    16    8    9 1    
    17    8   79 1    
    18    8   80 1    
    19    9   10 ar   
    20    9   14 ar   
    21   10   11 ar   
    22   10   81 1    
    23   11   12 ar   
    24   11   71 1    
    25   12   13 ar   
    26   12   82 1    
    27   13   14 ar   
    28   13   15 1    
    29   14   83 1    
    30   15   16 1    
    31   15   84 1    
    32   15   85 1    
    33   16   17 1    
    34   17   18 1    
    35   17   86 1    
    36   17   87 1    
    37   18   19 1    
    38   18   37 1    
    39   18   88 1    
    40   19   20 am   BACKBONE|DICT|INTERRES
    41   19   89 1    
    42   20   21 2    
    43   20   22 1    
    44   22   23 1    
    45   22   24 1    
    46   22   90 1    
    47   23   91 1    
    48   23   92 1    
    49   23   93 1    
    50   24   25 am   BACKBONE|DICT|INTERRES
    51   24   94 1    
    52   25   26 2    
    53   25   27 1    
    54   27   28 1    
    55   27   29 1    
    56   27   95 1    
    57   28   96 1    
    58   28   97 1    
    59   28   98 1    
    60   29   30 am   BACKBONE|DICT|INTERRES
    61   29   99 1    
    62   30   31 2    
    63   30   32 1    
    64   32   33 1    
    65   32   34 1    
    66   32  100 1    
    67   33  101 1    
    68   33  102 1    
    69   33  103 1    
    70   34   35 am   BACKBONE|DICT|INTERRES
    71   34  104 1    
    72   35   36 2    
    73   37   38 2    
    74   37   39 am   BACKBONE|DICT|INTERRES
    75   39   40 1    
    76   39  105 1    
    77   40   41 1    
    78   40   42 1    
    79   40  106 1    
    80   41  107 1    
    81   41  108 1    
    82   41  109 1    
    83   42   43 2    
    84   42   44 am   BACKBONE|DICT|INTERRES
    85   44   45 1    
    86   44  110 1    
    87   45   46 1    
    88   45   47 1    
    89   45  111 1    
    90   46  112 1    
    91   46  113 1    
    92   46  114 1    
    93   47   48 2    
    94   47   49 am   BACKBONE|DICT|INTERRES
    95   49   50 1    
    96   49  115 1    
    97   50   51 1    
    98   50   52 1    
    99   50  116 1    
   100   51  117 1    
   101   51  118 1    
   102   51  119 1    
   103   52   53 2    
   104   52   54 am   BACKBONE|DICT|INTERRES
   105   54   55 1    
   106   54  120 1    
   107   55   56 1    
   108   55   57 1    
   109   55  121 1    
   110   56  122 1    
   111   56  123 1    
   112   56  124 1    
   113   57   58 2    
   114   57   59 am   BACKBONE|DICT|INTERRES
   115   59   60 1    
   116   59  125 1    
   117   60   61 1    
   118   60   62 1    
   119   60  126 1    
   120   61  127 1    
   121   61  128 1    
   122   61  129 1    
   123   62   63 2    
   124   62   64 am   BACKBONE|DICT|INTERRES
   125   64   65 1    
   126   64  130 1    
   127   65   66 1    
   128   65   69 1    
   129   65  131 1    
   130   66   67 am   BACKBONE|DICT|INTERRES
   131   66   68 2    
   132   67  132 1    
   133   67  133 1    
   134   69   70 1    
   135   69  134 1    
   136   69  135 1    
   137   70   71 1    
   138   71  136 1    
   139   71  137 1    
@<TRIPOS>SUBSTRUCTURE
     1 UNK         1 GROUP             0       ****    0 ROOT    
