@<TRIPOS>MOLECULE
3R137
137   139    1
SMALL
USER_CHARGES


@<TRIPOS>ATOM
      1 CA         27.4023   -2.0942    2.8717 C.3       0 UNK        -0.2020 
      2 C          27.7485   -1.8922    1.4044 C.2       0 UNK         0.4855 
      3 O          28.3968   -0.9049    1.0583 O.2       0 UNK        -0.5197 
      4 N          27.3096   -2.8122    0.5352 N.am      1 UNK        -0.4892 
      5 CA         27.5789   -2.8029   -0.9112 C.3       1 UNK         0.0835 
      6 C6         27.7022   -4.2362   -1.4878 C.3       12 UNK        -0.0855 
      7 S7         29.2417   -5.0207   -0.8997 S.3       12 UNK        -0.2931 
      8 C8         30.1544   -5.3247   -2.4549 C.3       12 UNK         0.0378 
      9 C9         30.3700   -4.0963   -3.3418 C.ar      12 UNK        -0.0802 
     10 C10        30.2954   -4.2438   -4.7291 C.ar      12 UNK        -0.0944 
     11 C11        30.5278   -3.1600   -5.5789 C.ar      12 UNK        -0.0787 
     12 C12        30.8142   -1.9051   -5.0339 C.ar      12 UNK        -0.0862 
     13 C13        30.8767   -1.7311   -3.6455 C.ar      12 UNK        -0.0733 
     14 C14        30.6784   -2.8381   -2.8101 C.ar      12 UNK        -0.0832 
     15 C15        31.1946   -0.3715   -3.0210 C.3       12 UNK         0.0240 
     16 S16        30.4368    1.0675   -3.8593 S.3       12 UNK        -0.2522 
     17 C17        28.6558    0.6794   -3.8027 C.3       12 UNK        -0.0967 
     18 CA         28.0566    0.5083   -5.2269 C.3       5 UNK         0.0660 
     19 N          27.1755   -0.6592   -5.3157 N.am      5 UNK        -0.4015 
     20 C          26.7211   -1.1973   -6.4556 C.2       4 UNK         0.4946 
     21 O          26.9405   -0.7188   -7.5681 O.2       4 UNK        -0.5353 
     22 CA         25.8540   -2.4586   -6.3367 C.3       4 UNK         0.0277 
     23 CB         26.7280   -3.7008   -6.1068 C.3       4 UNK        -0.1981 
     24 N          24.8978   -2.3338   -5.2379 N.am      4 UNK        -0.4209 
     25 C          23.6080   -2.0031   -5.3839 C.2       3 UNK         0.4942 
     26 O          23.0615   -1.8311   -6.4740 O.2       3 UNK        -0.5208 
     27 CA         22.7771   -1.8263   -4.0977 C.3       3 UNK         0.0250 
     28 CB         22.0352   -3.1286   -3.7556 C.3       3 UNK        -0.1990 
     29 N          23.5524   -1.3918   -2.9305 N.am      3 UNK        -0.4232 
     30 C          24.2261   -0.2363   -2.8501 C.2       2 UNK         0.4993 
     31 O          24.2928    0.5855   -3.7626 O.2       2 UNK        -0.5286 
     32 CA         25.0118    0.0237   -1.5561 C.3       2 UNK         0.0209 
     33 CB         24.0809    0.5685   -0.4608 C.3       2 UNK        -0.1931 
     34 N          25.7754   -1.1150   -1.0266 N.am      2 UNK        -0.4546 
     35 C          26.5991   -1.9220   -1.7133 C.2       1 UNK         0.5154 
     36 O          26.6380   -1.9623   -2.9433 O.2       1 UNK        -0.5181 
     37 C          27.4017    1.8076   -5.7468 C.2       5 UNK         0.5014 
     38 O          28.1097    2.6722   -6.2605 O.2       5 UNK        -0.5248 
     39 N          26.0681    1.9271   -5.6486 N.am      6 UNK        -0.4434 
     40 CA         25.3084    3.0242   -6.2572 C.3       6 UNK         0.0363 
     41 CB         23.8873    3.0583   -5.6732 C.3       6 UNK        -0.1936 
     42 C          25.2483    2.9450   -7.7947 C.2       6 UNK         0.5081 
     43 O          25.0796    3.9819   -8.4373 O.2       6 UNK        -0.5248 
     44 N          25.3708    1.7349   -8.3589 N.am      7 UNK        -0.4718 
     45 CA         25.3681    1.4961   -9.8025 C.3       7 UNK         0.0273 
     46 CB         24.7464    0.1212  -10.1001 C.3       7 UNK        -0.1935 
     47 C          26.7818    1.5984  -10.3937 C.2       7 UNK         0.5018 
     48 O          26.9450    2.2047  -11.4534 O.2       7 UNK        -0.5186 
     49 N          27.7725    1.0145   -9.7076 N.am      8 UNK        -0.4240 
     50 CA         29.1718    0.9928  -10.1223 C.3       8 UNK         0.0235 
     51 CB         29.4644   -0.3201  -10.8749 C.3       8 UNK        -0.2000 
     52 C          30.0584    1.1578   -8.8851 C.2       8 UNK         0.4941 
     53 O          30.4397    0.1606   -8.2732 O.2       8 UNK        -0.5273 
     54 N          30.3877    2.4106   -8.5426 N.am      9 UNK        -0.4262 
     55 CA         31.2137    2.7657   -7.3799 C.3       9 UNK         0.0264 
     56 CB         31.2122    4.2915   -7.1948 C.3       9 UNK        -0.1955 
     57 C          32.6543    2.2278   -7.4435 C.2       9 UNK         0.5031 
     58 O          33.2289    1.9044   -6.4036 O.2       9 UNK        -0.5390 
     59 N          33.2043    2.1240   -8.6608 N.am      10 UNK        -0.4204 
     60 CA         34.5027    1.5015   -8.9325 C.3       10 UNK         0.0237 
     61 CB         35.0369    2.0286  -10.2750 C.3       10 UNK        -0.1985 
     62 C          34.4415   -0.0386   -8.9484 C.2       10 UNK         0.4970 
     63 O          35.4907   -0.6752   -8.8425 O.2       10 UNK        -0.4914 
     64 N          33.2333   -0.6019   -9.0926 N.am      11 UNK        -0.4285 
     65 CA         32.9428   -2.0336   -9.2335 C.3       11 UNK         0.1007 
     66 C          33.6384   -2.7001  -10.4625 C.2       11 UNK         0.5703 
     67 N          33.8403   -4.0107  -10.4542 N.am      11 UNK        -0.7361 
     68 O          33.9469   -2.0438  -11.4561 O.2       11 UNK        -0.4986 
     69 C69        33.1066   -2.7856   -7.8799 C.3       12 UNK        -0.0947 
     70 S70        31.9494   -4.1856   -7.7278 S.3       12 UNK        -0.2240 
     71 C71        30.4609   -3.3585   -7.0850 C.3       12 UNK         0.0194 
     72 H72        26.8243   -1.2477    3.2417 H         1 UNK         0.0906 
     73 H73        26.8186   -3.0004    3.0331 H         1 UNK         0.0906 
     74 H74        28.3138   -2.1690    3.4642 H         1 UNK         0.0906 
     75 H75        26.7817   -3.6044    0.8754 H         1 UNK         0.3140 
     76 H76        28.5403   -2.3111   -1.0662 H         1 UNK         0.1085 
     77 H77        26.8489   -4.8495   -1.1938 H         1 UNK         0.0836 
     78 H78        27.7071   -4.2360   -2.5794 H         1 UNK         0.0836 
     79 H79        29.6198   -6.0987   -3.0082 H         1 UNK         0.0731 
     80 H80        31.1296   -5.7456   -2.2074 H         1 UNK         0.0731 
     81 H81        30.0742   -5.2123   -5.1568 H         1 UNK         0.1312 
     82 H82        30.9902   -1.0655   -5.6936 H         1 UNK         0.1406 
     83 H83        30.7655   -2.7218   -1.7386 H         1 UNK         0.1631 
     84 H84        32.2770   -0.2382   -3.0204 H         1 UNK         0.0717 
     85 H85        30.8818   -0.3532   -1.9756 H         1 UNK         0.0717 
     86 H86        28.5410   -0.2332   -3.2203 H         1 UNK         0.0934 
     87 H87        28.1385    1.4503   -3.2279 H         1 UNK         0.0934 
     88 H88        28.8724    0.2925   -5.9209 H         1 UNK         0.0739 
     89 H89        26.9593   -1.1282   -4.4374 H         1 UNK         0.3093 
     90 H90        25.3244   -2.5919   -7.2826 H         1 UNK         0.0818 
     91 H91        27.3716   -3.8768   -6.9674 H         1 UNK         0.0819 
     92 H92        27.3664   -3.5972   -5.2281 H         1 UNK         0.0819 
     93 H93        26.1192   -4.5952   -5.9744 H         1 UNK         0.0819 
     94 H94        25.2774   -2.4045   -4.2992 H         1 UNK         0.3041 
     95 H95        22.0334   -1.0526   -4.3006 H         1 UNK         0.0784 
     96 H96        21.4267   -3.4637   -4.5970 H         1 UNK         0.0793 
     97 H97        22.7277   -3.9356   -3.5126 H         1 UNK         0.0793 
     98 H98        21.3639   -2.9931   -2.9074 H         1 UNK         0.0793 
     99 H99        23.5789   -2.0161   -2.1374 H         1 UNK         0.3024 
    100 H100       25.7412    0.8020   -1.7905 H         1 UNK         0.1171 
    101 H101       24.6452    0.9038    0.4096 H         1 UNK         0.0786 
    102 H102       23.5100    1.4254   -0.8221 H         1 UNK         0.0786 
    103 H103       23.3649   -0.1837   -0.1275 H         1 UNK         0.0786 
    104 H104       25.8254   -1.1817   -0.0203 H         1 UNK         0.2977 
    105 H105       25.5306    1.2270   -5.1432 H         1 UNK         0.3127 
    106 H106       25.8009    3.9640   -5.9979 H         1 UNK         0.0770 
    107 H107       23.3447    2.1348   -5.8799 H         1 UNK         0.0814 
    108 H108       23.3086    3.8796   -6.0980 H         1 UNK         0.0814 
    109 H109       23.9061    3.2018   -4.5927 H         1 UNK         0.0814 
    110 H110       25.5730    0.9366   -7.7697 H         1 UNK         0.2983 
    111 H111       24.7482    2.2508  -10.2922 H         1 UNK         0.0947 
    112 H112       24.6963   -0.0571  -11.1751 H         1 UNK         0.0806 
    113 H113       23.7295    0.0544   -9.7130 H         1 UNK         0.0806 
    114 H114       25.3234   -0.6942   -9.6634 H         1 UNK         0.0806 
    115 H115       27.5506    0.5054   -8.8528 H         1 UNK         0.3000 
    116 H116       29.3815    1.8261  -10.7967 H         1 UNK         0.0850 
    117 H117       30.5146   -0.3817  -11.1627 H         1 UNK         0.0810 
    118 H118       28.8729   -0.3919  -11.7876 H         1 UNK         0.0810 
    119 H119       29.2394   -1.1948  -10.2627 H         1 UNK         0.0810 
    120 H120       30.0048    3.1781   -9.0760 H         1 UNK         0.3040 
    121 H121       30.7466    2.3177   -6.5019 H         1 UNK         0.0766 
    122 H122       31.6340    4.8066   -8.0586 H         1 UNK         0.0812 
    123 H123       30.2011    4.6673   -7.0360 H         1 UNK         0.0812 
    124 H124       31.8015    4.5779   -6.3225 H         1 UNK         0.0812 
    125 H125       32.6699    2.4400   -9.4572 H         1 UNK         0.3205 
    126 H126       35.2044    1.7939   -8.1482 H         1 UNK         0.0754 
    127 H127       36.0223    1.6137  -10.4925 H         1 UNK         0.0769 
    128 H128       35.1403    3.1139  -10.2632 H         1 UNK         0.0769 
    129 H129       34.3815    1.7606  -11.1049 H         1 UNK         0.0769 
    130 H130       32.4165   -0.0066   -9.0956 H         1 UNK         0.2981 
    131 H131       31.8837   -2.0451   -9.4923 H         1 UNK         0.0541 
    132 H132       33.5532   -4.5621   -9.6592 H         1 UNK         0.3459 
    133 H133       34.2692   -4.4525  -11.2520 H         1 UNK         0.3459 
    134 H134       32.9233   -2.1112   -7.0422 H         1 UNK         0.0612 
    135 H135       34.1296   -3.1423   -7.7492 H         1 UNK         0.0612 
    136 H136       30.3038   -2.4097   -7.5991 H         1 UNK         0.0624 
    137 H137       29.6018   -3.9817   -7.3293 H         1 UNK         0.0624 
@<TRIPOS>BOND
     1    1    2 1    
     2    1   72 1    
     3    1   73 1    
     4    1   74 1    
     5    2    3 2    
     6    2    4 am   BACKBONE|DICT|INTERRES
     7    4    5 1    
     8    4   75 1    
     9    5    6 1    
    10    5   35 1    
    11    5   76 1    
    12    6    7 1    
    13    6   77 1    
    14    6   78 1    
    15    7    8 1    
    16    8    9 1    
    17    8   79 1    
    18    8   80 1    
    19    9   10 ar   
    20    9   14 ar   
    21   10   11 ar   
    22   10   81 1    
    23   11   12 ar   
    24   11   71 1    
    25   12   13 ar   
    26   12   82 1    
    27   13   14 ar   
    28   13   15 1    
    29   14   83 1    
    30   15   16 1    
    31   15   84 1    
    32   15   85 1    
    33   16   17 1    
    34   17   18 1    
    35   17   86 1    
    36   17   87 1    
    37   18   19 1    
    38   18   37 1    
    39   18   88 1    
    40   19   20 am   BACKBONE|DICT|INTERRES
    41   19   89 1    
    42   20   21 2    
    43   20   22 1    
    44   22   23 1    
    45   22   24 1    
    46   22   90 1    
    47   23   91 1    
    48   23   92 1    
    49   23   93 1    
    50   24   25 am   BACKBONE|DICT|INTERRES
    51   24   94 1    
    52   25   26 2    
    53   25   27 1    
    54   27   28 1    
    55   27   29 1    
    56   27   95 1    
    57   28   96 1    
    58   28   97 1    
    59   28   98 1    
    60   29   30 am   BACKBONE|DICT|INTERRES
    61   29   99 1    
    62   30   31 2    
    63   30   32 1    
    64   32   33 1    
    65   32   34 1    
    66   32  100 1    
    67   33  101 1    
    68   33  102 1    
    69   33  103 1    
    70   34   35 am   BACKBONE|DICT|INTERRES
    71   34  104 1    
    72   35   36 2    
    73   37   38 2    
    74   37   39 am   BACKBONE|DICT|INTERRES
    75   39   40 1    
    76   39  105 1    
    77   40   41 1    
    78   40   42 1    
    79   40  106 1    
    80   41  107 1    
    81   41  108 1    
    82   41  109 1    
    83   42   43 2    
    84   42   44 am   BACKBONE|DICT|INTERRES
    85   44   45 1    
    86   44  110 1    
    87   45   46 1    
    88   45   47 1    
    89   45  111 1    
    90   46  112 1    
    91   46  113 1    
    92   46  114 1    
    93   47   48 2    
    94   47   49 am   BACKBONE|DICT|INTERRES
    95   49   50 1    
    96   49  115 1    
    97   50   51 1    
    98   50   52 1    
    99   50  116 1    
   100   51  117 1    
   101   51  118 1    
   102   51  119 1    
   103   52   53 2    
   104   52   54 am   BACKBONE|DICT|INTERRES
   105   54   55 1    
   106   54  120 1    
   107   55   56 1    
   108   55   57 1    
   109   55  121 1    
   110   56  122 1    
   111   56  123 1    
   112   56  124 1    
   113   57   58 2    
   114   57   59 am   BACKBONE|DICT|INTERRES
   115   59   60 1    
   116   59  125 1    
   117   60   61 1    
   118   60   62 1    
   119   60  126 1    
   120   61  127 1    
   121   61  128 1    
   122   61  129 1    
   123   62   63 2    
   124   62   64 am   BACKBONE|DICT|INTERRES
   125   64   65 1    
   126   64  130 1    
   127   65   66 1    
   128   65   69 1    
   129   65  131 1    
   130   66   67 am   BACKBONE|DICT|INTERRES
   131   66   68 2    
   132   67  132 1    
   133   67  133 1    
   134   69   70 1    
   135   69  134 1    
   136   69  135 1    
   137   70   71 1    
   138   71  136 1    
   139   71  137 1    
@<TRIPOS>SUBSTRUCTURE
     1 UNK         1 GROUP             0       ****    0 ROOT    
