@<TRIPOS>MOLECULE
3R137
137   139    1
SMALL
USER_CHARGES


@<TRIPOS>ATOM
      1 CA         26.8225   -6.1312    2.1742 C.3       0 UNK        -0.2020 
      2 C          26.6312   -4.6244    2.0920 C.2       0 UNK         0.4855 
      3 O          25.6238   -4.1073    2.5751 O.2       0 UNK        -0.5197 
      4 N          27.5915   -3.9155    1.4851 N.am      1 UNK        -0.4892 
      5 CA         27.5698   -2.4605    1.2814 C.3       1 UNK         0.0835 
      6 C6         28.9804   -1.8980    0.9612 C.3       12 UNK        -0.0855 
      7 S7         29.8709   -2.8108   -0.3487 S.3       12 UNK        -0.2931 
      8 C8         29.6597   -1.6893   -1.7622 C.3       12 UNK         0.0378 
      9 C9         30.0458   -2.3754   -3.0622 C.ar      12 UNK        -0.0802 
     10 C10        31.2590   -2.0877   -3.6938 C.ar      12 UNK        -0.0944 
     11 C11        31.5964   -2.7182   -4.8958 C.ar      12 UNK        -0.0787 
     12 C12        30.7066   -3.6351   -5.4692 C.ar      12 UNK        -0.0862 
     13 C13        29.4954   -3.9391   -4.8386 C.ar      12 UNK        -0.0733 
     14 C14        29.1732   -3.3013   -3.6380 C.ar      12 UNK        -0.0832 
     15 C15        28.5686   -5.0105   -5.4003 C.3       12 UNK         0.0240 
     16 S16        26.8653   -4.4148   -5.6689 S.3       12 UNK        -0.2522 
     17 C17        26.8630   -3.9716   -7.4363 C.3       12 UNK        -0.0967 
     18 CA         26.5873   -2.4788   -7.7334 C.3       5 UNK         0.0660 
     19 N          25.3964   -1.9446   -7.0676 N.am      5 UNK        -0.4015 
     20 C          24.7489   -0.8479   -7.4876 C.2       4 UNK         0.4946 
     21 O          25.0731   -0.2006   -8.4852 O.2       4 UNK        -0.5353 
     22 CA         23.5632   -0.3737   -6.6329 C.3       4 UNK         0.0277 
     23 CB         22.3835   -1.3562   -6.7244 C.3       4 UNK        -0.1981 
     24 N          23.9211   -0.1537   -5.2293 N.am      4 UNK        -0.4209 
     25 C          24.8226    0.7427   -4.8016 C.2       3 UNK         0.4942 
     26 O          25.4679    1.4744   -5.5503 O.2       3 UNK        -0.5208 
     27 CA         25.0504    0.8516   -3.2839 C.3       3 UNK         0.0250 
     28 CB         24.1876    1.9789   -2.6949 C.3       3 UNK        -0.1990 
     29 N          24.8060   -0.3855   -2.5373 N.am      3 UNK        -0.4232 
     30 C          25.4975   -1.5223   -2.6913 C.2       2 UNK         0.4993 
     31 O          26.3736   -1.6792   -3.5429 O.2       2 UNK        -0.5286 
     32 CA         25.1443   -2.6726   -1.7314 C.3       2 UNK         0.0209 
     33 CB         24.9193   -3.9901   -2.4911 C.3       2 UNK        -0.1931 
     34 N          26.1705   -2.8818   -0.7071 N.am      2 UNK        -0.4546 
     35 C          26.5108   -2.0063    0.2511 C.2       1 UNK         0.5154 
     36 O          26.0023   -0.8903    0.3673 O.2       1 UNK        -0.5181 
     37 C          27.8215   -1.5860   -7.5204 C.2       5 UNK         0.5014 
     38 O          28.6280   -1.4773   -8.4444 O.2       5 UNK        -0.5248 
     39 N          27.9171   -0.9155   -6.3598 N.am      6 UNK        -0.4434 
     40 CA         28.9511    0.0823   -6.0744 C.3       6 UNK         0.0363 
     41 CB         28.8040    0.6117   -4.6399 C.3       6 UNK        -0.1936 
     42 C          28.9233    1.2500   -7.0721 C.2       6 UNK         0.5081 
     43 O          29.9681    1.6070   -7.6126 O.2       6 UNK        -0.5248 
     44 N          27.7267    1.7990   -7.3246 N.am      7 UNK        -0.4718 
     45 CA         27.4927    2.8561   -8.3075 C.3       7 UNK         0.0273 
     46 CB         26.0680    3.4092   -8.1462 C.3       7 UNK        -0.1935 
     47 C          27.7344    2.3868   -9.7498 C.2       7 UNK         0.5018 
     48 O          28.3697    3.1135  -10.5138 O.2       7 UNK        -0.5186 
     49 N          27.2468    1.1839  -10.0912 N.am      8 UNK        -0.4240 
     50 CA         27.3912    0.5825  -11.4210 C.3       8 UNK         0.0235 
     51 CB         26.5378   -0.6916  -11.5169 C.3       8 UNK        -0.2000 
     52 C          28.8516    0.2857  -11.8019 C.2       8 UNK         0.4941 
     53 O          29.2525    0.5864  -12.9269 O.2       8 UNK        -0.5273 
     54 N          29.6211   -0.2830  -10.8637 N.am      9 UNK        -0.4262 
     55 CA         31.0420   -0.5957  -11.0431 C.3       9 UNK         0.0264 
     56 CB         31.4077   -1.7788  -10.1334 C.3       9 UNK        -0.1955 
     57 C          31.9753    0.6046  -10.7894 C.2       9 UNK         0.5031 
     58 O          33.1634    0.5015  -11.0988 O.2       9 UNK        -0.5390 
     59 N          31.4371    1.7043  -10.2391 N.am      10 UNK        -0.4204 
     60 CA         32.1259    2.9356   -9.8307 C.3       10 UNK         0.0237 
     61 CB         32.6980    3.6860  -11.0525 C.3       10 UNK        -0.1985 
     62 C          33.1675    2.6825   -8.7222 C.2       10 UNK         0.4970 
     63 O          34.3045    3.1507   -8.8143 O.2       10 UNK        -0.4914 
     64 N          32.7521    1.9280   -7.6998 N.am      11 UNK        -0.4285 
     65 CA         33.5468    1.5810   -6.5152 C.3       11 UNK         0.1007 
     66 C          33.7586    2.7961   -5.5726 C.2       11 UNK         0.5703 
     67 N          34.8751    2.8362   -4.8580 N.am      11 UNK        -0.7361 
     68 O          32.9108    3.6792   -5.4530 O.2       11 UNK        -0.4986 
     69 C69        32.9215    0.3862   -5.7489 C.3       12 UNK        -0.0947 
     70 S70        32.8452   -1.1134   -6.7842 S.3       12 UNK        -0.2240 
     71 C71        32.9421   -2.4461   -5.5527 C.3       12 UNK         0.0194 
     72 H72        26.0024   -6.6415    1.6697 H         1 UNK         0.0906 
     73 H73        27.7562   -6.4501    1.7114 H         1 UNK         0.0906 
     74 H74        26.8340   -6.4516    3.2156 H         1 UNK         0.0906 
     75 H75        28.4045   -4.3846    1.1081 H         1 UNK         0.3140 
     76 H76        27.2600   -2.0133    2.2290 H         1 UNK         0.1085 
     77 H77        29.5940   -1.9565    1.8617 H         1 UNK         0.0836 
     78 H78        28.9353   -0.8345    0.7171 H         1 UNK         0.0836 
     79 H79        28.6195   -1.3668   -1.8217 H         1 UNK         0.0731 
     80 H80        30.2559   -0.7890   -1.6059 H         1 UNK         0.0731 
     81 H81        31.9439   -1.3799   -3.2477 H         1 UNK         0.1312 
     82 H82        30.9725   -4.1309   -6.3928 H         1 UNK         0.1406 
     83 H83        28.2386   -3.5301   -3.1446 H         1 UNK         0.1631 
     84 H84        28.5289   -5.8303   -4.6819 H         1 UNK         0.0717 
     85 H85        28.9697   -5.4405   -6.3189 H         1 UNK         0.0717 
     86 H86        27.7937   -4.2882   -7.9110 H         1 UNK         0.0934 
     87 H87        26.0859   -4.5732   -7.9103 H         1 UNK         0.0934 
     88 H88        26.3814   -2.4341   -8.8043 H         1 UNK         0.0739 
     89 H89        25.1084   -2.4074   -6.2173 H         1 UNK         0.3093 
     90 H90        23.2345    0.5851   -7.0400 H         1 UNK         0.0818 
     91 H91        21.5009   -0.9619   -6.2203 H         1 UNK         0.0819 
     92 H92        22.1056   -1.5353   -7.7641 H         1 UNK         0.0819 
     93 H93        22.6192   -2.3233   -6.2788 H         1 UNK         0.0819 
     94 H94        23.4377   -0.7082   -4.5383 H         1 UNK         0.3041 
     95 H95        26.0981    1.1163   -3.1317 H         1 UNK         0.0784 
     96 H96        24.3710    2.9217   -3.2129 H         1 UNK         0.0793 
     97 H97        23.1224    1.7611   -2.7822 H         1 UNK         0.0793 
     98 H98        24.4133    2.1426   -1.6409 H         1 UNK         0.0793 
     99 H99        24.1267   -0.3309   -1.7917 H         1 UNK         0.3024 
    100 H100       24.2117   -2.4226   -1.2207 H         1 UNK         0.1171 
    101 H101       24.2113   -3.8578   -3.3103 H         1 UNK         0.0786 
    102 H102       24.5154   -4.7612   -1.8349 H         1 UNK         0.0786 
    103 H103       25.8464   -4.3704   -2.9192 H         1 UNK         0.0786 
    104 H104       26.6539   -3.7675   -0.7221 H         1 UNK         0.2977 
    105 H105       27.2403   -1.0978   -5.6285 H         1 UNK         0.3127 
    106 H106       29.9122   -0.4269   -6.1619 H         1 UNK         0.0770 
    107 H107       27.9685    1.3037   -4.5438 H         1 UNK         0.0814 
    108 H108       29.7022    1.1473   -4.3314 H         1 UNK         0.0814 
    109 H109       28.6422   -0.1956   -3.9307 H         1 UNK         0.0814 
    110 H110       26.9162    1.4800   -6.7979 H         1 UNK         0.2983 
    111 H111       28.1974    3.6647   -8.1012 H         1 UNK         0.0947 
    112 H112       25.8713    4.2033   -8.8676 H         1 UNK         0.0806 
    113 H113       25.9181    3.8293   -7.1515 H         1 UNK         0.0806 
    114 H114       25.3148    2.6344   -8.2960 H         1 UNK         0.0806 
    115 H115       26.6977    0.6695   -9.4087 H         1 UNK         0.3000 
    116 H116       27.0027    1.3019  -12.1452 H         1 UNK         0.0850 
    117 H117       26.5684   -1.1046  -12.5260 H         1 UNK         0.0810 
    118 H118       25.4928   -0.4911  -11.2797 H         1 UNK         0.0810 
    119 H119       26.8949   -1.4661  -10.8391 H         1 UNK         0.0810 
    120 H120       29.2081   -0.5483   -9.9701 H         1 UNK         0.3040 
    121 H121       31.2062   -0.9107  -12.0758 H         1 UNK         0.0766 
    122 H122       32.4648   -2.0343  -10.2174 H         1 UNK         0.0812 
    123 H123       30.8351   -2.6693  -10.3926 H         1 UNK         0.0812 
    124 H124       31.2074   -1.5504   -9.0875 H         1 UNK         0.0812 
    125 H125       30.4582    1.6603   -9.9869 H         1 UNK         0.3205 
    126 H126       31.3601    3.5729   -9.3854 H         1 UNK         0.0754 
    127 H127       33.1003    4.6566  -10.7599 H         1 UNK         0.0769 
    128 H128       31.9266    3.8675  -11.8010 H         1 UNK         0.0769 
    129 H129       33.5058    3.1310  -11.5303 H         1 UNK         0.0769 
    130 H130       31.7730    1.6489   -7.6777 H         1 UNK         0.2981 
    131 H131       34.5316    1.2711   -6.8709 H         1 UNK         0.0541 
    132 H132       35.5733    2.1135   -4.9389 H         1 UNK         0.3459 
    133 H133       35.0261    3.6097   -4.2294 H         1 UNK         0.3459 
    134 H134       31.9163    0.6298   -5.4035 H         1 UNK         0.0612 
    135 H135       33.5086    0.1618   -4.8567 H         1 UNK         0.0612 
    136 H136       33.6974   -2.2080   -4.8023 H         1 UNK         0.0624 
    137 H137       33.2919   -3.3505   -6.0525 H         1 UNK         0.0624 
@<TRIPOS>BOND
     1    1    2 1    
     2    1   72 1    
     3    1   73 1    
     4    1   74 1    
     5    2    3 2    
     6    2    4 am   BACKBONE|DICT|INTERRES
     7    4    5 1    
     8    4   75 1    
     9    5    6 1    
    10    5   35 1    
    11    5   76 1    
    12    6    7 1    
    13    6   77 1    
    14    6   78 1    
    15    7    8 1    
    16    8    9 1    
    17    8   79 1    
    18    8   80 1    
    19    9   10 ar   
    20    9   14 ar   
    21   10   11 ar   
    22   10   81 1    
    23   11   12 ar   
    24   11   71 1    
    25   12   13 ar   
    26   12   82 1    
    27   13   14 ar   
    28   13   15 1    
    29   14   83 1    
    30   15   16 1    
    31   15   84 1    
    32   15   85 1    
    33   16   17 1    
    34   17   18 1    
    35   17   86 1    
    36   17   87 1    
    37   18   19 1    
    38   18   37 1    
    39   18   88 1    
    40   19   20 am   BACKBONE|DICT|INTERRES
    41   19   89 1    
    42   20   21 2    
    43   20   22 1    
    44   22   23 1    
    45   22   24 1    
    46   22   90 1    
    47   23   91 1    
    48   23   92 1    
    49   23   93 1    
    50   24   25 am   BACKBONE|DICT|INTERRES
    51   24   94 1    
    52   25   26 2    
    53   25   27 1    
    54   27   28 1    
    55   27   29 1    
    56   27   95 1    
    57   28   96 1    
    58   28   97 1    
    59   28   98 1    
    60   29   30 am   BACKBONE|DICT|INTERRES
    61   29   99 1    
    62   30   31 2    
    63   30   32 1    
    64   32   33 1    
    65   32   34 1    
    66   32  100 1    
    67   33  101 1    
    68   33  102 1    
    69   33  103 1    
    70   34   35 am   BACKBONE|DICT|INTERRES
    71   34  104 1    
    72   35   36 2    
    73   37   38 2    
    74   37   39 am   BACKBONE|DICT|INTERRES
    75   39   40 1    
    76   39  105 1    
    77   40   41 1    
    78   40   42 1    
    79   40  106 1    
    80   41  107 1    
    81   41  108 1    
    82   41  109 1    
    83   42   43 2    
    84   42   44 am   BACKBONE|DICT|INTERRES
    85   44   45 1    
    86   44  110 1    
    87   45   46 1    
    88   45   47 1    
    89   45  111 1    
    90   46  112 1    
    91   46  113 1    
    92   46  114 1    
    93   47   48 2    
    94   47   49 am   BACKBONE|DICT|INTERRES
    95   49   50 1    
    96   49  115 1    
    97   50   51 1    
    98   50   52 1    
    99   50  116 1    
   100   51  117 1    
   101   51  118 1    
   102   51  119 1    
   103   52   53 2    
   104   52   54 am   BACKBONE|DICT|INTERRES
   105   54   55 1    
   106   54  120 1    
   107   55   56 1    
   108   55   57 1    
   109   55  121 1    
   110   56  122 1    
   111   56  123 1    
   112   56  124 1    
   113   57   58 2    
   114   57   59 am   BACKBONE|DICT|INTERRES
   115   59   60 1    
   116   59  125 1    
   117   60   61 1    
   118   60   62 1    
   119   60  126 1    
   120   61  127 1    
   121   61  128 1    
   122   61  129 1    
   123   62   63 2    
   124   62   64 am   BACKBONE|DICT|INTERRES
   125   64   65 1    
   126   64  130 1    
   127   65   66 1    
   128   65   69 1    
   129   65  131 1    
   130   66   67 am   BACKBONE|DICT|INTERRES
   131   66   68 2    
   132   67  132 1    
   133   67  133 1    
   134   69   70 1    
   135   69  134 1    
   136   69  135 1    
   137   70   71 1    
   138   71  136 1    
   139   71  137 1    
@<TRIPOS>SUBSTRUCTURE
     1 UNK         1 GROUP             0       ****    0 ROOT    
