@<TRIPOS>MOLECULE
3R137
137   139    1
SMALL
USER_CHARGES


@<TRIPOS>ATOM
      1 CA         29.3981   -5.6750   -0.3338 C.3       0 UNK        -0.2020 
      2 C          28.3512   -4.7797    0.3120 C.2       0 UNK         0.4855 
      3 O          27.5383   -5.2554    1.1041 O.2       0 UNK        -0.5197 
      4 N          28.3626   -3.4844   -0.0269 N.am      1 UNK        -0.4892 
      5 CA         27.4244   -2.4657    0.4664 C.3       1 UNK         0.0835 
      6 C6         27.9899   -1.0321    0.2789 C.3       12 UNK        -0.0855 
      7 S7         28.3483   -0.5781   -1.4571 S.3       12 UNK        -0.2931 
      8 C8         30.1081   -1.0482   -1.6140 C.3       12 UNK         0.0378 
      9 C9         30.4083   -1.8648   -2.8702 C.ar      12 UNK        -0.0802 
     10 C10        31.6302   -1.6923   -3.5291 C.ar      12 UNK        -0.0944 
     11 C11        31.9521   -2.4643   -4.6497 C.ar      12 UNK        -0.0787 
     12 C12        31.0330   -3.4062   -5.1250 C.ar      12 UNK        -0.0862 
     13 C13        29.8111   -3.5971   -4.4731 C.ar      12 UNK        -0.0733 
     14 C14        29.5088   -2.8257   -3.3486 C.ar      12 UNK        -0.0832 
     15 C15        28.8446   -4.6797   -4.9392 C.3       12 UNK         0.0240 
     16 S16        27.8176   -4.1654   -6.3525 S.3       12 UNK        -0.2522 
     17 C17        26.7271   -2.8987   -5.6139 C.3       12 UNK        -0.0967 
     18 CA         26.5901   -1.6269   -6.4808 C.3       5 UNK         0.0660 
     19 N          25.5413   -0.7333   -5.9776 N.am      5 UNK        -0.4015 
     20 C          25.0489    0.3084   -6.6671 C.2       4 UNK         0.4946 
     21 O          25.4693    0.6317   -7.7793 O.2       4 UNK        -0.5353 
     22 CA         23.9459    1.1710   -6.0195 C.3       4 UNK         0.0277 
     23 CB         22.8592    1.5737   -7.0391 C.3       4 UNK        -0.1981 
     24 N          23.3439    0.6049   -4.8055 N.am      4 UNK        -0.4209 
     25 C          22.6253   -0.5212   -4.6894 C.2       3 UNK         0.4942 
     26 O          22.3483   -1.2788   -5.6212 O.2       3 UNK        -0.5208 
     27 CA         22.1666   -0.8705   -3.2633 C.3       3 UNK         0.0250 
     28 CB         20.6412   -1.0627   -3.2090 C.3       3 UNK        -0.1990 
     29 N          22.8239   -2.0623   -2.7169 N.am      3 UNK        -0.4232 
     30 C          24.1446   -2.2878   -2.6579 C.2       2 UNK         0.4993 
     31 O          25.0006   -1.5541   -3.1617 O.2       2 UNK        -0.5286 
     32 CA         24.5773   -3.5643   -1.9155 C.3       2 UNK         0.0209 
     33 CB         24.7256   -4.7496   -2.8831 C.3       2 UNK        -0.1931 
     34 N          25.8383   -3.3722   -1.1984 N.am      2 UNK        -0.4546 
     35 C          25.9947   -2.6057   -0.1089 C.2       1 UNK         0.5154 
     36 O          25.0612   -2.0299    0.4540 O.2       1 UNK        -0.5181 
     37 C          27.9245   -0.8824   -6.6763 C.2       5 UNK         0.5014 
     38 O          28.5481   -1.0368   -7.7262 O.2       5 UNK        -0.5248 
     39 N          28.2954   -0.0284   -5.7099 N.am      6 UNK        -0.4434 
     40 CA         29.4799    0.8294   -5.7925 C.3       6 UNK         0.0363 
     41 CB         29.6814    1.5778   -4.4673 C.3       6 UNK        -0.1936 
     42 C          29.4285    1.8328   -6.9555 C.2       6 UNK         0.5081 
     43 O          30.4697    2.1221   -7.5415 O.2       6 UNK        -0.5248 
     44 N          28.2290    2.3328   -7.2821 N.am      7 UNK        -0.4718 
     45 CA         27.9982    3.2166   -8.4246 C.3       7 UNK         0.0273 
     46 CB         26.6463    3.9330   -8.2708 C.3       7 UNK        -0.1935 
     47 C          28.0752    2.4520   -9.7547 C.2       7 UNK         0.5018 
     48 O          28.7461    2.9159  -10.6764 O.2       7 UNK        -0.5186 
     49 N          27.4141    1.2869   -9.8192 N.am      8 UNK        -0.4240 
     50 CA         27.3815    0.4045  -10.9883 C.3       8 UNK         0.0235 
     51 CB         26.3631   -0.7228  -10.7525 C.3       8 UNK        -0.2000 
     52 C          28.7587   -0.1744  -11.3531 C.2       8 UNK         0.4941 
     53 O          29.1218   -0.1720  -12.5299 O.2       8 UNK        -0.5273 
     54 N          29.5029   -0.6460  -10.3440 N.am      9 UNK        -0.4262 
     55 CA         30.8478   -1.2074  -10.4963 C.3       9 UNK         0.0264 
     56 CB         31.1013   -2.2022   -9.3522 C.3       9 UNK        -0.1955 
     57 C          31.9596   -0.1415  -10.5597 C.2       9 UNK         0.5031 
     58 O          33.0966   -0.4969  -10.8743 O.2       9 UNK        -0.5390 
     59 N          31.6242    1.1263  -10.2704 N.am      10 UNK        -0.4204 
     60 CA         32.5087    2.2982  -10.2139 C.3       10 UNK         0.0237 
     61 CB         33.0590    2.6454  -11.6139 C.3       10 UNK        -0.1985 
     62 C          33.6087    2.1539   -9.1426 C.2       10 UNK         0.4970 
     63 O          34.7861    2.3939   -9.4183 O.2       10 UNK        -0.4914 
     64 N          33.1898    1.7574   -7.9367 N.am      11 UNK        -0.4285 
     65 CA         34.0431    1.5628   -6.7547 C.3       11 UNK         0.1007 
     66 C          34.3194    2.8719   -5.9618 C.2       11 UNK         0.5703 
     67 N          33.6386    3.9778   -6.2410 N.am      11 UNK        -0.7361 
     68 O          35.1779    2.8870   -5.0829 O.2       11 UNK        -0.4986 
     69 C69        33.4835    0.4553   -5.8221 C.3       12 UNK        -0.0947 
     70 S70        33.3038   -1.1406   -6.6857 S.3       12 UNK        -0.2240 
     71 C71        33.3168   -2.3281   -5.3109 C.3       12 UNK         0.0194 
     72 H72        28.9139   -6.4737   -0.8952 H         1 UNK         0.0906 
     73 H73        30.0438   -5.1241   -1.0178 H         1 UNK         0.0906 
     74 H74        30.0260   -6.1298    0.4320 H         1 UNK         0.0906 
     75 H75        29.0671   -3.1439   -0.6639 H         1 UNK         0.3140 
     76 H76        27.3183   -2.6258    1.5420 H         1 UNK         0.1085 
     77 H77        27.2884   -0.2976    0.6795 H         1 UNK         0.0836 
     78 H78        28.8944   -0.9104    0.8770 H         1 UNK         0.0836 
     79 H79        30.4321   -1.6256   -0.7480 H         1 UNK         0.0731 
     80 H80        30.7033   -0.1338   -1.6036 H         1 UNK         0.0731 
     81 H81        32.3449   -0.9708   -3.1573 H         1 UNK         0.1312 
     82 H82        31.2792   -4.0095   -5.9882 H         1 UNK         0.1406 
     83 H83        28.5684   -2.9832   -2.8425 H         1 UNK         0.1631 
     84 H84        28.1958   -4.9965   -4.1211 H         1 UNK         0.0717 
     85 H85        29.4121   -5.5652   -5.2293 H         1 UNK         0.0717 
     86 H86        25.7430   -3.3539   -5.4966 H         1 UNK         0.0934 
     87 H87        27.0582   -2.6410   -4.6086 H         1 UNK         0.0934 
     88 H88        26.2658   -1.9502   -7.4725 H         1 UNK         0.0739 
     89 H89        25.1837   -0.9299   -5.0467 H         1 UNK         0.3093 
     90 H90        24.4454    2.0872   -5.7012 H         1 UNK         0.0818 
     91 H91        22.1017    2.2106   -6.5825 H         1 UNK         0.0819 
     92 H92        23.2887    2.1323   -7.8718 H         1 UNK         0.0819 
     93 H93        22.3568    0.7028   -7.4610 H         1 UNK         0.0819 
     94 H94        23.5379    1.1199   -3.9571 H         1 UNK         0.3041 
     95 H95        22.4188   -0.0386   -2.6024 H         1 UNK         0.0784 
     96 H96        20.1232   -0.1874   -3.6037 H         1 UNK         0.0793 
     97 H97        20.3214   -1.9229   -3.7987 H         1 UNK         0.0793 
     98 H98        20.2934   -1.2082   -2.1860 H         1 UNK         0.0793 
     99 H99        22.2066   -2.7495   -2.3092 H         1 UNK         0.3024 
    100 H100       23.8083   -3.8121   -1.1799 H         1 UNK         0.1171 
    101 H101       24.8795   -5.6822   -2.3396 H         1 UNK         0.0786 
    102 H102       23.8307   -4.8770   -3.4939 H         1 UNK         0.0786 
    103 H103       25.5695   -4.6202   -3.5592 H         1 UNK         0.0786 
    104 H104       26.6593   -3.8036   -1.5912 H         1 UNK         0.2977 
    105 H105       27.7335    0.0394   -4.8736 H         1 UNK         0.3127 
    106 H106       30.3382    0.1755   -5.9588 H         1 UNK         0.0770 
    107 H107       28.8238    2.2041   -4.2192 H         1 UNK         0.0814 
    108 H108       30.5577    2.2262   -4.5133 H         1 UNK         0.0814 
    109 H109       29.8403    0.8856   -3.6445 H         1 UNK         0.0814 
    110 H110       27.4164    2.0103   -6.7781 H         1 UNK         0.2983 
    111 H111       28.7823    3.9775   -8.4337 H         1 UNK         0.0947 
    112 H112       26.4765    4.6213   -9.0999 H         1 UNK         0.0806 
    113 H113       26.6108    4.5192   -7.3525 H         1 UNK         0.0806 
    114 H114       25.8100    3.2339   -8.2547 H         1 UNK         0.0806 
    115 H115       26.8565    0.9990   -9.0174 H         1 UNK         0.3000 
    116 H116       27.0388    0.9990  -11.8378 H         1 UNK         0.0850 
    117 H117       26.2974   -1.3794  -11.6210 H         1 UNK         0.0810 
    118 H118       25.3652   -0.3233  -10.5701 H         1 UNK         0.0810 
    119 H119       26.6361   -1.3393   -9.8953 H         1 UNK         0.0810 
    120 H120       29.1114   -0.6599   -9.4011 H         1 UNK         0.3040 
    121 H121       30.8900   -1.7647  -11.4345 H         1 UNK         0.0766 
    122 H122       31.0276   -1.7175   -8.3789 H         1 UNK         0.0812 
    123 H123       32.0958   -2.6446   -9.4233 H         1 UNK         0.0812 
    124 H124       30.3791   -3.0186   -9.3688 H         1 UNK         0.0812 
    125 H125       30.6635    1.3011  -10.0070 H         1 UNK         0.3205 
    126 H126       31.8817    3.1322   -9.8945 H         1 UNK         0.0754 
    127 H127       33.6181    3.5816  -11.5917 H         1 UNK         0.0769 
    128 H128       32.2517    2.7675  -12.3362 H         1 UNK         0.0769 
    129 H129       33.7321    1.8744  -11.9899 H         1 UNK         0.0769 
    130 H130       32.1871    1.6680   -7.7839 H         1 UNK         0.2981 
    131 H131       35.0197    1.2221   -7.1037 H         1 UNK         0.0541 
    132 H132       32.9245    3.9702   -6.9514 H         1 UNK         0.3459 
    133 H133       33.8316    4.8212   -5.7245 H         1 UNK         0.3459 
    134 H134       32.5168    0.7466   -5.4114 H         1 UNK         0.0612 
    135 H135       34.1488    0.3097   -4.9692 H         1 UNK         0.0612 
    136 H136       33.6294   -3.2982   -5.7000 H         1 UNK         0.0624 
    137 H137       34.0731   -2.0430   -4.5782 H         1 UNK         0.0624 
@<TRIPOS>BOND
     1    1    2 1    
     2    1   72 1    
     3    1   73 1    
     4    1   74 1    
     5    2    3 2    
     6    2    4 am   BACKBONE|DICT|INTERRES
     7    4    5 1    
     8    4   75 1    
     9    5    6 1    
    10    5   35 1    
    11    5   76 1    
    12    6    7 1    
    13    6   77 1    
    14    6   78 1    
    15    7    8 1    
    16    8    9 1    
    17    8   79 1    
    18    8   80 1    
    19    9   10 ar   
    20    9   14 ar   
    21   10   11 ar   
    22   10   81 1    
    23   11   12 ar   
    24   11   71 1    
    25   12   13 ar   
    26   12   82 1    
    27   13   14 ar   
    28   13   15 1    
    29   14   83 1    
    30   15   16 1    
    31   15   84 1    
    32   15   85 1    
    33   16   17 1    
    34   17   18 1    
    35   17   86 1    
    36   17   87 1    
    37   18   19 1    
    38   18   37 1    
    39   18   88 1    
    40   19   20 am   BACKBONE|DICT|INTERRES
    41   19   89 1    
    42   20   21 2    
    43   20   22 1    
    44   22   23 1    
    45   22   24 1    
    46   22   90 1    
    47   23   91 1    
    48   23   92 1    
    49   23   93 1    
    50   24   25 am   BACKBONE|DICT|INTERRES
    51   24   94 1    
    52   25   26 2    
    53   25   27 1    
    54   27   28 1    
    55   27   29 1    
    56   27   95 1    
    57   28   96 1    
    58   28   97 1    
    59   28   98 1    
    60   29   30 am   BACKBONE|DICT|INTERRES
    61   29   99 1    
    62   30   31 2    
    63   30   32 1    
    64   32   33 1    
    65   32   34 1    
    66   32  100 1    
    67   33  101 1    
    68   33  102 1    
    69   33  103 1    
    70   34   35 am   BACKBONE|DICT|INTERRES
    71   34  104 1    
    72   35   36 2    
    73   37   38 2    
    74   37   39 am   BACKBONE|DICT|INTERRES
    75   39   40 1    
    76   39  105 1    
    77   40   41 1    
    78   40   42 1    
    79   40  106 1    
    80   41  107 1    
    81   41  108 1    
    82   41  109 1    
    83   42   43 2    
    84   42   44 am   BACKBONE|DICT|INTERRES
    85   44   45 1    
    86   44  110 1    
    87   45   46 1    
    88   45   47 1    
    89   45  111 1    
    90   46  112 1    
    91   46  113 1    
    92   46  114 1    
    93   47   48 2    
    94   47   49 am   BACKBONE|DICT|INTERRES
    95   49   50 1    
    96   49  115 1    
    97   50   51 1    
    98   50   52 1    
    99   50  116 1    
   100   51  117 1    
   101   51  118 1    
   102   51  119 1    
   103   52   53 2    
   104   52   54 am   BACKBONE|DICT|INTERRES
   105   54   55 1    
   106   54  120 1    
   107   55   56 1    
   108   55   57 1    
   109   55  121 1    
   110   56  122 1    
   111   56  123 1    
   112   56  124 1    
   113   57   58 2    
   114   57   59 am   BACKBONE|DICT|INTERRES
   115   59   60 1    
   116   59  125 1    
   117   60   61 1    
   118   60   62 1    
   119   60  126 1    
   120   61  127 1    
   121   61  128 1    
   122   61  129 1    
   123   62   63 2    
   124   62   64 am   BACKBONE|DICT|INTERRES
   125   64   65 1    
   126   64  130 1    
   127   65   66 1    
   128   65   69 1    
   129   65  131 1    
   130   66   67 am   BACKBONE|DICT|INTERRES
   131   66   68 2    
   132   67  132 1    
   133   67  133 1    
   134   69   70 1    
   135   69  134 1    
   136   69  135 1    
   137   70   71 1    
   138   71  136 1    
   139   71  137 1    
@<TRIPOS>SUBSTRUCTURE
     1 UNK         1 GROUP             0       ****    0 ROOT    
