@<TRIPOS>MOLECULE
3R137
137   139    1
SMALL
USER_CHARGES


@<TRIPOS>ATOM
      1 CA         29.3409    0.2006    1.5515 C.3       0 UNK        -0.2020 
      2 C          28.9730   -0.6483    0.3440 C.2       0 UNK         0.4855 
      3 O          28.5345   -0.1082   -0.6711 O.2       0 UNK        -0.5197 
      4 N          29.1555   -1.9716    0.4431 N.am      1 UNK        -0.4892 
      5 CA         28.8100   -2.9409   -0.5998 C.3       1 UNK         0.0835 
      6 C6         29.5343   -4.2913   -0.3695 C.3       12 UNK        -0.0855 
      7 S7         29.6546   -5.3253   -1.8701 S.3       12 UNK        -0.2931 
      8 C8         31.2743   -4.8368   -2.5562 C.3       12 UNK         0.0378 
      9 C9         31.1468   -3.5752   -3.3954 C.ar      12 UNK        -0.0802 
     10 C10        31.3599   -2.3179   -2.8247 C.ar      12 UNK        -0.0944 
     11 C11        31.1243   -1.1545   -3.5622 C.ar      12 UNK        -0.0787 
     12 C12        30.7166   -1.2599   -4.8971 C.ar      12 UNK        -0.0862 
     13 C13        30.5666   -2.5126   -5.5001 C.ar      12 UNK        -0.0733 
     14 C14        30.7785   -3.6668   -4.7401 C.ar      12 UNK        -0.0832 
     15 C15        30.2029   -2.6089   -6.9773 C.3       12 UNK         0.0240 
     16 S16        28.8209   -3.7532   -7.3235 S.3       12 UNK        -0.2522 
     17 C17        27.4385   -3.0124   -6.3904 C.3       12 UNK        -0.0967 
     18 CA         26.6101   -2.0253   -7.2510 C.3       5 UNK         0.0660 
     19 N          25.2389   -1.8733   -6.7713 N.am      5 UNK        -0.4015 
     20 C          24.2062   -1.5042   -7.5439 C.2       4 UNK         0.4946 
     21 O          24.2728   -1.3837   -8.7672 O.2       4 UNK        -0.5353 
     22 CA         22.8699   -1.2021   -6.8405 C.3       4 UNK         0.0277 
     23 CB         21.9561   -2.4379   -6.8699 C.3       4 UNK        -0.1981 
     24 N          23.0259   -0.7484   -5.4563 N.am      4 UNK        -0.4209 
     25 C          23.6245    0.3935   -5.0872 C.2       3 UNK         0.4942 
     26 O          24.0741    1.2212   -5.8784 O.2       3 UNK        -0.5208 
     27 CA         23.8111    0.6118   -3.5766 C.3       3 UNK         0.0250 
     28 CB         22.5709    1.2880   -2.9712 C.3       3 UNK        -0.1990 
     29 N          24.1134   -0.6215   -2.8383 N.am      3 UNK        -0.4232 
     30 C          25.1780   -1.4033   -3.0654 C.2       2 UNK         0.4993 
     31 O          26.0031   -1.2010   -3.9625 O.2       2 UNK        -0.5286 
     32 CA         25.3289   -2.6457   -2.1852 C.3       2 UNK         0.0209 
     33 CB         24.8060   -3.8953   -2.9132 C.3       2 UNK        -0.1931 
     34 N          26.7505   -2.8007   -1.9074 N.am      2 UNK        -0.4546 
     35 C          27.2803   -3.0789   -0.7127 C.2       1 UNK         0.5154 
     36 O          26.6203   -3.3950    0.2810 O.2       1 UNK        -0.5181 
     37 C          27.2756   -0.6435   -7.3281 C.2       5 UNK         0.5014 
     38 O          27.7513   -0.2678   -8.3968 O.2       5 UNK        -0.5248 
     39 N          27.2784    0.0925   -6.2063 N.am      6 UNK        -0.4434 
     40 CA         27.9583    1.3828   -6.0408 C.3       6 UNK         0.0363 
     41 CB         27.7854    1.8578   -4.5902 C.3       6 UNK        -0.1936 
     42 C          27.5178    2.4789   -7.0289 C.2       6 UNK         0.5081 
     43 O          28.3319    3.3283   -7.3912 O.2       6 UNK        -0.5248 
     44 N          26.2512    2.4406   -7.4614 N.am      7 UNK        -0.4718 
     45 CA         25.7056    3.3260   -8.4917 C.3       7 UNK         0.0273 
     46 CB         24.1723    3.3336   -8.3756 C.3       7 UNK        -0.1935 
     47 C          26.1265    2.9489   -9.9261 C.2       7 UNK         0.5018 
     48 O          25.9737    3.7839  -10.8192 O.2       7 UNK        -0.5186 
     49 N          26.6046    1.7148  -10.1403 N.am      8 UNK        -0.4240 
     50 CA         26.8925    1.1503  -11.4609 C.3       8 UNK         0.0235 
     51 CB         26.1336   -0.1797  -11.6072 C.3       8 UNK        -0.2000 
     52 C          28.3921    0.9282  -11.7073 C.2       8 UNK         0.4941 
     53 O          28.8389    1.1214  -12.8393 O.2       8 UNK        -0.5273 
     54 N          29.1378    0.5073  -10.6791 N.am      9 UNK        -0.4262 
     55 CA         30.5465    0.1264  -10.7629 C.3       9 UNK         0.0264 
     56 CB         30.6400   -1.4085  -10.8335 C.3       9 UNK        -0.1955 
     57 C          31.3241    0.6597   -9.5542 C.2       9 UNK         0.5031 
     58 O          30.7360    0.9275   -8.5042 O.2       9 UNK        -0.5390 
     59 N          32.6464    0.7827   -9.7249 N.am      10 UNK        -0.4204 
     60 CA         33.5871    1.1845   -8.6785 C.3       10 UNK         0.0237 
     61 CB         34.9443    1.5181   -9.3201 C.3       10 UNK        -0.1985 
     62 C          33.7512    0.0909   -7.6100 C.2       10 UNK         0.4970 
     63 O          33.6968   -1.0986   -7.9330 O.2       10 UNK        -0.4914 
     64 N          33.9689    0.5254   -6.3661 N.am      11 UNK        -0.4285 
     65 CA         34.1563   -0.3392   -5.1941 C.3       11 UNK         0.1007 
     66 C          35.5266   -1.0674   -5.1959 C.2       11 UNK         0.5703 
     67 N          35.5987   -2.2510   -4.6018 N.am      11 UNK        -0.7361 
     68 O          36.5290   -0.5557   -5.6925 O.2       11 UNK        -0.4986 
     69 C69        33.9399    0.4425   -3.8701 C.3       12 UNK        -0.0947 
     70 S70        32.3532    1.3478   -3.8300 S.3       12 UNK        -0.2240 
     71 C71        31.2832    0.2077   -2.8962 C.3       12 UNK         0.0194 
     72 H72        28.4652    0.7408    1.9102 H         1 UNK         0.0906 
     73 H73        29.7280   -0.4021    2.3728 H         1 UNK         0.0906 
     74 H74        30.1027    0.9301    1.2778 H         1 UNK         0.0906 
     75 H75        29.4795   -2.3629    1.3164 H         1 UNK         0.3140 
     76 H76        29.1583   -2.5223   -1.5420 H         1 UNK         0.1085 
     77 H77        30.5465   -4.1149   -0.0024 H         1 UNK         0.0836 
     78 H78        29.0396   -4.8682    0.4144 H         1 UNK         0.0836 
     79 H79        31.6525   -5.6516   -3.1756 H         1 UNK         0.0731 
     80 H80        32.0047   -4.7022   -1.7570 H         1 UNK         0.0731 
     81 H81        31.6560   -2.2459   -1.7869 H         1 UNK         0.1312 
     82 H82        30.5489   -0.3621   -5.4754 H         1 UNK         0.1406 
     83 H83        30.6357   -4.6394   -5.1914 H         1 UNK         0.1631 
     84 H84        31.0820   -2.9521   -7.5243 H         1 UNK         0.0717 
     85 H85        29.9671   -1.6249   -7.3834 H         1 UNK         0.0717 
     86 H86        26.8044   -3.8430   -6.0769 H         1 UNK         0.0934 
     87 H87        27.7985   -2.5607   -5.4642 H         1 UNK         0.0934 
     88 H88        26.5618   -2.4262   -8.2665 H         1 UNK         0.0739 
     89 H89        25.1185   -1.8818   -5.7667 H         1 UNK         0.3093 
     90 H90        22.3829   -0.4002   -7.3999 H         1 UNK         0.0818 
     91 H91        20.9733   -2.2158   -6.4536 H         1 UNK         0.0819 
     92 H92        21.8010   -2.7832   -7.8932 H         1 UNK         0.0819 
     93 H93        22.3810   -3.2698   -6.3067 H         1 UNK         0.0819 
     94 H94        22.6819   -1.3625   -4.7326 H         1 UNK         0.3041 
     95 H95        24.6606    1.2851   -3.4481 H         1 UNK         0.0784 
     96 H96        22.3394    2.2170   -3.4947 H         1 UNK         0.0793 
     97 H97        21.6885    0.6499   -3.0343 H         1 UNK         0.0793 
     98 H98        22.7288    1.5415   -1.9227 H         1 UNK         0.0793 
     99 H99        23.4776   -0.8651   -2.0917 H         1 UNK         0.3024 
    100 H100       24.7719   -2.4984   -1.2567 H         1 UNK         0.1171 
    101 H101       24.9272   -4.7875   -2.2986 H         1 UNK         0.0786 
    102 H102       23.7438   -3.8013   -3.1422 H         1 UNK         0.0786 
    103 H103       25.3317   -4.0659   -3.8537 H         1 UNK         0.0786 
    104 H104       27.3528   -2.4800   -2.6553 H         1 UNK         0.2977 
    105 H105       26.8397   -0.2964   -5.3737 H         1 UNK         0.3127 
    106 H106       29.0206    1.2087   -6.2196 H         1 UNK         0.0770 
    107 H107       26.7421    2.0786   -4.3644 H         1 UNK         0.0814 
    108 H108       28.3601    2.7665   -4.4069 H         1 UNK         0.0814 
    109 H109       28.1298    1.1059   -3.8796 H         1 UNK         0.0814 
    110 H110       25.6118    1.7669   -7.0488 H         1 UNK         0.2983 
    111 H111       26.0655    4.3402   -8.3045 H         1 UNK         0.0947 
    112 H112       23.7251    4.0068   -9.1083 H         1 UNK         0.0806 
    113 H113       23.8513    3.6696   -7.3894 H         1 UNK         0.0806 
    114 H114       23.7521    2.3407   -8.5429 H         1 UNK         0.0806 
    115 H115       26.7719    1.1050   -9.3450 H         1 UNK         0.3000 
    116 H116       26.5344    1.8210  -12.2448 H         1 UNK         0.0850 
    117 H117       26.3142   -0.6295  -12.5844 H         1 UNK         0.0810 
    118 H118       25.0576   -0.0340  -11.5099 H         1 UNK         0.0810 
    119 H119       26.4385   -0.9047  -10.8509 H         1 UNK         0.0810 
    120 H120       28.7095    0.3748   -9.7620 H         1 UNK         0.3040 
    121 H121       30.9974    0.5539  -11.6612 H         1 UNK         0.0766 
    122 H122       30.1741   -1.8774   -9.9657 H         1 UNK         0.0812 
    123 H123       31.6776   -1.7432  -10.8684 H         1 UNK         0.0812 
    124 H124       30.1451   -1.7935  -11.7252 H         1 UNK         0.0812 
    125 H125       33.0503    0.4984  -10.6055 H         1 UNK         0.3205 
    126 H126       33.1954    2.0862   -8.2020 H         1 UNK         0.0754 
    127 H127       34.8518    2.3208  -10.0521 H         1 UNK         0.0769 
    128 H128       35.3771    0.6519   -9.8226 H         1 UNK         0.0769 
    129 H129       35.6618    1.8487   -8.5677 H         1 UNK         0.0769 
    130 H130       34.0229    1.5171   -6.1899 H         1 UNK         0.2981 
    131 H131       33.3953   -1.1172   -5.2532 H         1 UNK         0.0541 
    132 H132       34.7848   -2.6740   -4.1839 H         1 UNK         0.3459 
    133 H133       36.4829   -2.7343   -4.5786 H         1 UNK         0.3459 
    134 H134       34.7395    1.1712   -3.7253 H         1 UNK         0.0612 
    135 H135       33.9858   -0.2325   -3.0136 H         1 UNK         0.0612 
    136 H136       31.6818    0.1045   -1.8858 H         1 UNK         0.0624 
    137 H137       30.2977    0.6617   -2.7908 H         1 UNK         0.0624 
@<TRIPOS>BOND
     1    1    2 1    
     2    1   72 1    
     3    1   73 1    
     4    1   74 1    
     5    2    3 2    
     6    2    4 am   BACKBONE|DICT|INTERRES
     7    4    5 1    
     8    4   75 1    
     9    5    6 1    
    10    5   35 1    
    11    5   76 1    
    12    6    7 1    
    13    6   77 1    
    14    6   78 1    
    15    7    8 1    
    16    8    9 1    
    17    8   79 1    
    18    8   80 1    
    19    9   10 ar   
    20    9   14 ar   
    21   10   11 ar   
    22   10   81 1    
    23   11   12 ar   
    24   11   71 1    
    25   12   13 ar   
    26   12   82 1    
    27   13   14 ar   
    28   13   15 1    
    29   14   83 1    
    30   15   16 1    
    31   15   84 1    
    32   15   85 1    
    33   16   17 1    
    34   17   18 1    
    35   17   86 1    
    36   17   87 1    
    37   18   19 1    
    38   18   37 1    
    39   18   88 1    
    40   19   20 am   BACKBONE|DICT|INTERRES
    41   19   89 1    
    42   20   21 2    
    43   20   22 1    
    44   22   23 1    
    45   22   24 1    
    46   22   90 1    
    47   23   91 1    
    48   23   92 1    
    49   23   93 1    
    50   24   25 am   BACKBONE|DICT|INTERRES
    51   24   94 1    
    52   25   26 2    
    53   25   27 1    
    54   27   28 1    
    55   27   29 1    
    56   27   95 1    
    57   28   96 1    
    58   28   97 1    
    59   28   98 1    
    60   29   30 am   BACKBONE|DICT|INTERRES
    61   29   99 1    
    62   30   31 2    
    63   30   32 1    
    64   32   33 1    
    65   32   34 1    
    66   32  100 1    
    67   33  101 1    
    68   33  102 1    
    69   33  103 1    
    70   34   35 am   BACKBONE|DICT|INTERRES
    71   34  104 1    
    72   35   36 2    
    73   37   38 2    
    74   37   39 am   BACKBONE|DICT|INTERRES
    75   39   40 1    
    76   39  105 1    
    77   40   41 1    
    78   40   42 1    
    79   40  106 1    
    80   41  107 1    
    81   41  108 1    
    82   41  109 1    
    83   42   43 2    
    84   42   44 am   BACKBONE|DICT|INTERRES
    85   44   45 1    
    86   44  110 1    
    87   45   46 1    
    88   45   47 1    
    89   45  111 1    
    90   46  112 1    
    91   46  113 1    
    92   46  114 1    
    93   47   48 2    
    94   47   49 am   BACKBONE|DICT|INTERRES
    95   49   50 1    
    96   49  115 1    
    97   50   51 1    
    98   50   52 1    
    99   50  116 1    
   100   51  117 1    
   101   51  118 1    
   102   51  119 1    
   103   52   53 2    
   104   52   54 am   BACKBONE|DICT|INTERRES
   105   54   55 1    
   106   54  120 1    
   107   55   56 1    
   108   55   57 1    
   109   55  121 1    
   110   56  122 1    
   111   56  123 1    
   112   56  124 1    
   113   57   58 2    
   114   57   59 am   BACKBONE|DICT|INTERRES
   115   59   60 1    
   116   59  125 1    
   117   60   61 1    
   118   60   62 1    
   119   60  126 1    
   120   61  127 1    
   121   61  128 1    
   122   61  129 1    
   123   62   63 2    
   124   62   64 am   BACKBONE|DICT|INTERRES
   125   64   65 1    
   126   64  130 1    
   127   65   66 1    
   128   65   69 1    
   129   65  131 1    
   130   66   67 am   BACKBONE|DICT|INTERRES
   131   66   68 2    
   132   67  132 1    
   133   67  133 1    
   134   69   70 1    
   135   69  134 1    
   136   69  135 1    
   137   70   71 1    
   138   71  136 1    
   139   71  137 1    
@<TRIPOS>SUBSTRUCTURE
     1 UNK         1 GROUP             0       ****    0 ROOT    
