@<TRIPOS>MOLECULE
3R137
137   139    1
SMALL
USER_CHARGES


@<TRIPOS>ATOM
      1 CA         23.0151   -5.5589   -4.3490 C.3       0 UNK        -0.2020 
      2 C          23.8534   -5.1691   -3.1418 C.2       0 UNK         0.4855 
      3 O          23.3016   -4.7205   -2.1358 O.2       0 UNK        -0.5197 
      4 N          25.1812   -5.3308   -3.2323 N.am      1 UNK        -0.4892 
      5 CA         26.1564   -4.9858   -2.1914 C.3       1 UNK         0.0835 
      6 C6         27.5983   -5.4346   -2.5520 C.3       12 UNK        -0.0855 
      7 S7         28.1685   -4.9701   -4.2302 S.3       12 UNK        -0.2931 
      8 C8         29.9528   -4.7081   -3.9612 C.3       12 UNK         0.0378 
      9 C9         30.3305   -3.2327   -3.8902 C.ar      12 UNK        -0.0802 
     10 C10        31.1890   -2.6839   -4.8485 C.ar      12 UNK        -0.0944 
     11 C11        31.5846   -1.3450   -4.7689 C.ar      12 UNK        -0.0787 
     12 C12        31.1040   -0.5447   -3.7293 C.ar      12 UNK        -0.0862 
     13 C13        30.2369   -1.0773   -2.7709 C.ar      12 UNK        -0.0733 
     14 C14        29.8587   -2.4216   -2.8531 C.ar      12 UNK        -0.0832 
     15 C15        29.7192   -0.2088   -1.6350 C.3       12 UNK         0.0240 
     16 S16        27.9637    0.2127   -1.8532 S.3       12 UNK        -0.2522 
     17 C17        28.0098    1.4568   -3.1823 C.3       12 UNK        -0.0967 
     18 CA         27.7125    0.8867   -4.5932 C.3       5 UNK         0.0660 
     19 N          26.4825    0.0761   -4.6404 N.am      5 UNK        -0.4015 
     20 C          25.9542   -0.4878   -5.7386 C.2       4 UNK         0.4946 
     21 O          26.3752   -0.2825   -6.8767 O.2       4 UNK        -0.5353 
     22 CA         24.7581   -1.4368   -5.5830 C.3       4 UNK         0.0277 
     23 CB         25.1715   -2.8648   -5.9746 C.3       4 UNK        -0.1981 
     24 N          24.1900   -1.4542   -4.2326 N.am      4 UNK        -0.4209 
     25 C          23.0683   -0.8112   -3.8744 C.2       3 UNK         0.4942 
     26 O          22.4515   -0.0566   -4.6273 O.2       3 UNK        -0.5208 
     27 CA         22.5057   -1.0563   -2.4609 C.3       3 UNK         0.0250 
     28 CB         21.2363   -1.9217   -2.5341 C.3       3 UNK        -0.1990 
     29 N          23.4656   -1.6972   -1.5604 N.am      3 UNK        -0.4232 
     30 C          24.3854   -1.0313   -0.8471 C.2       2 UNK         0.4993 
     31 O          24.4619    0.1971   -0.8165 O.2       2 UNK        -0.5286 
     32 CA         25.4037   -1.8650   -0.0425 C.3       2 UNK         0.0209 
     33 CB         24.9586   -1.9789    1.4246 C.3       2 UNK        -0.1931 
     34 N          25.6539   -3.2106   -0.5738 N.am      2 UNK        -0.4546 
     35 C          26.0703   -3.4925   -1.8170 C.2       1 UNK         0.5154 
     36 O          26.3008   -2.6345   -2.6693 O.2       1 UNK        -0.5181 
     37 C          27.7663    2.0394   -5.6193 C.2       5 UNK         0.5014 
     38 O          28.8394    2.3202   -6.1507 O.2       5 UNK        -0.5248 
     39 N          26.6187    2.6823   -5.8803 N.am      6 UNK        -0.4434 
     40 CA         26.4833    3.7754   -6.8467 C.3       6 UNK         0.0363 
     41 CB         25.1680    4.5249   -6.5802 C.3       6 UNK        -0.1936 
     42 C          26.5469    3.3130   -8.3142 C.2       6 UNK         0.5081 
     43 O          26.9666    4.0933   -9.1685 O.2       6 UNK        -0.5248 
     44 N          26.1299    2.0699   -8.5878 N.am      7 UNK        -0.4718 
     45 CA         26.1594    1.4592   -9.9190 C.3       7 UNK         0.0273 
     46 CB         24.9804    0.4819  -10.0580 C.3       7 UNK        -0.1935 
     47 C          27.4909    0.7369  -10.1666 C.2       7 UNK         0.5018 
     48 O          28.0339    0.8172  -11.2683 O.2       7 UNK        -0.5186 
     49 N          28.0037    0.0657   -9.1273 N.am      8 UNK        -0.4240 
     50 CA         29.2677   -0.6724   -9.1263 C.3       8 UNK         0.0235 
     51 CB         29.2409   -1.6806   -7.9632 C.3       8 UNK        -0.2000 
     52 C          30.5166    0.2224   -9.0239 C.2       8 UNK         0.4941 
     53 O          31.6191   -0.3161   -9.0946 O.2       8 UNK        -0.5273 
     54 N          30.3256    1.5392   -8.8473 N.am      9 UNK        -0.4262 
     55 CA         31.2753    2.5930   -8.4552 C.3       9 UNK         0.0264 
     56 CB         30.6147    3.9596   -8.7057 C.3       9 UNK        -0.1955 
     57 C          32.6972    2.5850   -9.0509 C.2       9 UNK         0.5031 
     58 O          33.5977    3.1363   -8.4156 O.2       9 UNK        -0.5390 
     59 N          32.8983    1.9743  -10.2270 N.am      10 UNK        -0.4204 
     60 CA         34.2222    1.7016  -10.8007 C.3       10 UNK         0.0237 
     61 CB         34.0602    1.1261  -12.2169 C.3       10 UNK        -0.1985 
     62 C          35.0668    0.7564   -9.9212 C.2       10 UNK         0.4970 
     63 O          36.2760    0.9582   -9.8080 O.2       10 UNK        -0.4914 
     64 N          34.3991   -0.2222   -9.2937 N.am      11 UNK        -0.4285 
     65 CA         34.9045   -1.1144   -8.2401 C.3       11 UNK         0.1007 
     66 C          36.1107   -2.0259   -8.6219 C.2       11 UNK         0.5703 
     67 N          36.3705   -2.2653   -9.9017 N.am      11 UNK        -0.7361 
     68 O          36.8014   -2.5537   -7.7532 O.2       11 UNK        -0.4986 
     69 C69        35.0692   -0.3537   -6.8871 C.3       12 UNK        -0.0947 
     70 S70        34.2572   -1.2066   -5.4943 S.3       12 UNK        -0.2240 
     71 C71        32.5206   -0.7641   -5.8157 C.3       12 UNK         0.0194 
     72 H72        22.4496   -4.6986   -4.7062 H         1 UNK         0.0906 
     73 H73        23.6288   -5.9287   -5.1702 H         1 UNK         0.0906 
     74 H74        22.3075   -6.3410   -4.0757 H         1 UNK         0.0906 
     75 H75        25.5888   -5.6641   -4.0949 H         1 UNK         0.3140 
     76 H76        25.8666   -5.5576   -1.3069 H         1 UNK         0.1085 
     77 H77        27.6554   -6.5224   -2.4887 H         1 UNK         0.0836 
     78 H78        28.3027   -5.0688   -1.8029 H         1 UNK         0.0836 
     79 H79        30.4871   -5.1942   -4.7789 H         1 UNK         0.0731 
     80 H80        30.2826   -5.2133   -3.0526 H         1 UNK         0.0731 
     81 H81        31.5648   -3.3008   -5.6535 H         1 UNK         0.1312 
     82 H82        31.4041    0.4925   -3.6679 H         1 UNK         0.1406 
     83 H83        29.1866   -2.8315   -2.1125 H         1 UNK         0.1631 
     84 H84        30.3084    0.7040   -1.5342 H         1 UNK         0.0717 
     85 H85        29.8331   -0.7485   -0.6938 H         1 UNK         0.0717 
     86 H86        27.2794    2.2262   -2.9234 H         1 UNK         0.0934 
     87 H87        28.9826    1.9527   -3.1674 H         1 UNK         0.0934 
     88 H88        28.5226    0.2036   -4.8554 H         1 UNK         0.0739 
     89 H89        26.1059   -0.1907   -3.7415 H         1 UNK         0.3093 
     90 H90        24.0041   -1.1070   -6.3008 H         1 UNK         0.0818 
     91 H91        25.9194   -3.2682   -5.2922 H         1 UNK         0.0819 
     92 H92        24.3150   -3.5367   -5.9782 H         1 UNK         0.0819 
     93 H93        25.6014   -2.8901   -6.9770 H         1 UNK         0.0819 
     94 H94        24.7030   -1.9982   -3.5436 H         1 UNK         0.3041 
     95 H95        22.2230   -0.0842   -2.0509 H         1 UNK         0.0784 
     96 H96        20.4731   -1.4445   -3.1504 H         1 UNK         0.0793 
     97 H97        21.4379   -2.9014   -2.9681 H         1 UNK         0.0793 
     98 H98        20.8031   -2.0755   -1.5457 H         1 UNK         0.0793 
     99 H99        23.4663   -2.7127   -1.5425 H         1 UNK         0.3024 
    100 H100       26.3511   -1.3253   -0.0667 H         1 UNK         0.1171 
    101 H101       24.0282   -2.5398    1.5218 H         1 UNK         0.0786 
    102 H102       24.7913   -0.9923    1.8594 H         1 UNK         0.0786 
    103 H103       25.7161   -2.4731    2.0333 H         1 UNK         0.0786 
    104 H104       25.4426   -3.9777    0.0485 H         1 UNK         0.2977 
    105 H105       25.7806    2.3863   -5.4010 H         1 UNK         0.3127 
    106 H106       27.3089    4.4731   -6.6888 H         1 UNK         0.0770 
    107 H107       24.2998    3.8770   -6.7079 H         1 UNK         0.0814 
    108 H108       25.0517    5.3639   -7.2678 H         1 UNK         0.0814 
    109 H109       25.1398    4.9316   -5.5691 H         1 UNK         0.0814 
    110 H110       25.8808    1.4584   -7.8182 H         1 UNK         0.2983 
    111 H111       26.0495    2.2333  -10.6821 H         1 UNK         0.0947 
    112 H112       24.9715    0.0204  -11.0464 H         1 UNK         0.0806 
    113 H113       24.0263    0.9934   -9.9310 H         1 UNK         0.0806 
    114 H114       25.0290   -0.3227   -9.3228 H         1 UNK         0.0806 
    115 H115       27.4557    0.0189   -8.2681 H         1 UNK         0.3000 
    116 H116       29.3437   -1.2288  -10.0628 H         1 UNK         0.0850 
    117 H117       30.1351   -2.3052   -7.9612 H         1 UNK         0.0810 
    118 H118       28.3815   -2.3476   -8.0332 H         1 UNK         0.0810 
    119 H119       29.1930   -1.1778   -6.9960 H         1 UNK         0.0810 
    120 H120       29.3579    1.8236   -8.8025 H         1 UNK         0.3040 
    121 H121       31.4044    2.4810   -7.3770 H         1 UNK         0.0766 
    122 H122       29.6966    4.0690   -8.1285 H         1 UNK         0.0812 
    123 H123       30.3671    4.0992   -9.7586 H         1 UNK         0.0812 
    124 H124       31.2735    4.7784   -8.4123 H         1 UNK         0.0812 
    125 H125       32.1056    1.5269  -10.6645 H         1 UNK         0.3205 
    126 H126       34.7568    2.6510  -10.8746 H         1 UNK         0.0754 
    127 H127       35.0325    0.9312  -12.6719 H         1 UNK         0.0769 
    128 H128       33.5327    1.8221  -12.8696 H         1 UNK         0.0769 
    129 H129       33.5075    0.1857  -12.2113 H         1 UNK         0.0769 
    130 H130       33.3909   -0.2759   -9.4302 H         1 UNK         0.2981 
    131 H131       34.0909   -1.8305   -8.1257 H         1 UNK         0.0541 
    132 H132       35.8099   -1.8405  -10.6226 H         1 UNK         0.3459 
    133 H133       37.1440   -2.8632  -10.1463 H         1 UNK         0.3459 
    134 H134       36.1206   -0.1958   -6.6411 H         1 UNK         0.0612 
    135 H135       34.6402    0.6485   -6.9433 H         1 UNK         0.0612 
    136 H136       32.4177    0.3211   -5.8664 H         1 UNK         0.0624 
    137 H137       32.2338   -1.1503   -6.7917 H         1 UNK         0.0624 
@<TRIPOS>BOND
     1    1    2 1    
     2    1   72 1    
     3    1   73 1    
     4    1   74 1    
     5    2    3 2    
     6    2    4 am   BACKBONE|DICT|INTERRES
     7    4    5 1    
     8    4   75 1    
     9    5    6 1    
    10    5   35 1    
    11    5   76 1    
    12    6    7 1    
    13    6   77 1    
    14    6   78 1    
    15    7    8 1    
    16    8    9 1    
    17    8   79 1    
    18    8   80 1    
    19    9   10 ar   
    20    9   14 ar   
    21   10   11 ar   
    22   10   81 1    
    23   11   12 ar   
    24   11   71 1    
    25   12   13 ar   
    26   12   82 1    
    27   13   14 ar   
    28   13   15 1    
    29   14   83 1    
    30   15   16 1    
    31   15   84 1    
    32   15   85 1    
    33   16   17 1    
    34   17   18 1    
    35   17   86 1    
    36   17   87 1    
    37   18   19 1    
    38   18   37 1    
    39   18   88 1    
    40   19   20 am   BACKBONE|DICT|INTERRES
    41   19   89 1    
    42   20   21 2    
    43   20   22 1    
    44   22   23 1    
    45   22   24 1    
    46   22   90 1    
    47   23   91 1    
    48   23   92 1    
    49   23   93 1    
    50   24   25 am   BACKBONE|DICT|INTERRES
    51   24   94 1    
    52   25   26 2    
    53   25   27 1    
    54   27   28 1    
    55   27   29 1    
    56   27   95 1    
    57   28   96 1    
    58   28   97 1    
    59   28   98 1    
    60   29   30 am   BACKBONE|DICT|INTERRES
    61   29   99 1    
    62   30   31 2    
    63   30   32 1    
    64   32   33 1    
    65   32   34 1    
    66   32  100 1    
    67   33  101 1    
    68   33  102 1    
    69   33  103 1    
    70   34   35 am   BACKBONE|DICT|INTERRES
    71   34  104 1    
    72   35   36 2    
    73   37   38 2    
    74   37   39 am   BACKBONE|DICT|INTERRES
    75   39   40 1    
    76   39  105 1    
    77   40   41 1    
    78   40   42 1    
    79   40  106 1    
    80   41  107 1    
    81   41  108 1    
    82   41  109 1    
    83   42   43 2    
    84   42   44 am   BACKBONE|DICT|INTERRES
    85   44   45 1    
    86   44  110 1    
    87   45   46 1    
    88   45   47 1    
    89   45  111 1    
    90   46  112 1    
    91   46  113 1    
    92   46  114 1    
    93   47   48 2    
    94   47   49 am   BACKBONE|DICT|INTERRES
    95   49   50 1    
    96   49  115 1    
    97   50   51 1    
    98   50   52 1    
    99   50  116 1    
   100   51  117 1    
   101   51  118 1    
   102   51  119 1    
   103   52   53 2    
   104   52   54 am   BACKBONE|DICT|INTERRES
   105   54   55 1    
   106   54  120 1    
   107   55   56 1    
   108   55   57 1    
   109   55  121 1    
   110   56  122 1    
   111   56  123 1    
   112   56  124 1    
   113   57   58 2    
   114   57   59 am   BACKBONE|DICT|INTERRES
   115   59   60 1    
   116   59  125 1    
   117   60   61 1    
   118   60   62 1    
   119   60  126 1    
   120   61  127 1    
   121   61  128 1    
   122   61  129 1    
   123   62   63 2    
   124   62   64 am   BACKBONE|DICT|INTERRES
   125   64   65 1    
   126   64  130 1    
   127   65   66 1    
   128   65   69 1    
   129   65  131 1    
   130   66   67 am   BACKBONE|DICT|INTERRES
   131   66   68 2    
   132   67  132 1    
   133   67  133 1    
   134   69   70 1    
   135   69  134 1    
   136   69  135 1    
   137   70   71 1    
   138   71  136 1    
   139   71  137 1    
@<TRIPOS>SUBSTRUCTURE
     1 UNK         1 GROUP             0       ****    0 ROOT    
