@<TRIPOS>MOLECULE
3R137
137   139    1
SMALL
USER_CHARGES


@<TRIPOS>ATOM
      1 CA         28.7456   -6.7858   -6.3985 C.3       0 UNK        -0.2020 
      2 C          28.3936   -6.6648   -4.9230 C.2       0 UNK         0.4855 
      3 O          27.9563   -7.6423   -4.3144 O.2       0 UNK        -0.5197 
      4 N          28.5842   -5.4733   -4.3455 N.am      1 UNK        -0.4892 
      5 CA         28.2063   -5.1349   -2.9703 C.3       1 UNK         0.0835 
      6 C6         29.0032   -3.9088   -2.4568 C.3       12 UNK        -0.0855 
      7 S7         30.8031   -4.2177   -2.4235 S.3       12 UNK        -0.2931 
      8 C8         31.3664   -3.1077   -1.0952 C.3       12 UNK         0.0378 
      9 C9         31.1345   -1.6419   -1.4346 C.ar      12 UNK        -0.0802 
     10 C10        32.0835   -0.9187   -2.1649 C.ar      12 UNK        -0.0944 
     11 C11        31.8738    0.4336   -2.4611 C.ar      12 UNK        -0.0787 
     12 C12        30.7039    1.0596   -2.0180 C.ar      12 UNK        -0.0862 
     13 C13        29.7472    0.3430   -1.2909 C.ar      12 UNK        -0.0733 
     14 C14        29.9726   -1.0027   -0.9971 C.ar      12 UNK        -0.0832 
     15 C15        28.4647    1.0074   -0.8149 C.3       12 UNK         0.0240 
     16 S16        27.0754    0.6403   -1.9335 S.3       12 UNK        -0.2522 
     17 C17        27.5151    1.6564   -3.3782 C.3       12 UNK        -0.0967 
     18 CA         28.1037    0.8158   -4.5466 C.3       5 UNK         0.0660 
     19 N          27.1069   -0.1050   -5.0918 N.am      5 UNK        -0.4015 
     20 C          27.3333   -1.3140   -5.6171 C.2       4 UNK         0.4946 
     21 O          28.4319   -1.8726   -5.6460 O.2       4 UNK        -0.5353 
     22 CA         26.0950   -2.0206   -6.1949 C.3       4 UNK         0.0277 
     23 CB         26.4437   -3.3291   -6.9293 C.3       4 UNK        -0.1981 
     24 N          25.1006   -2.2915   -5.1511 N.am      4 UNK        -0.4209 
     25 C          24.2152   -1.3947   -4.6887 C.2       3 UNK         0.4942 
     26 O          24.1814   -0.2269   -5.0822 O.2       3 UNK        -0.5208 
     27 CA         23.1909   -1.8477   -3.6309 C.3       3 UNK         0.0250 
     28 CB         21.8159   -2.0661   -4.2839 C.3       3 UNK        -0.1990 
     29 N          23.5802   -3.0713   -2.9279 N.am      3 UNK        -0.4232 
     30 C          24.3805   -3.1122   -1.8546 C.2       2 UNK         0.4993 
     31 O          24.8360   -2.1129   -1.2994 O.2       2 UNK        -0.5286 
     32 CA         24.7655   -4.5029   -1.3107 C.3       2 UNK         0.0209 
     33 CB         23.8077   -5.6391   -1.7405 C.3       2 UNK        -0.1931 
     34 N          26.1568   -4.8369   -1.6462 N.am      2 UNK        -0.4546 
     35 C          26.6858   -4.8812   -2.8785 C.2       1 UNK         0.5154 
     36 O          26.0227   -4.7038   -3.9049 O.2       1 UNK        -0.5181 
     37 C          28.6729    1.6801   -5.6946 C.2       5 UNK         0.5014 
     38 O          29.1004    1.1385   -6.7141 O.2       5 UNK        -0.5248 
     39 N          28.6589    3.0119   -5.5338 N.am      6 UNK        -0.4434 
     40 CA         29.1415    3.9920   -6.5113 C.3       6 UNK         0.0363 
     41 CB         29.2890    5.3565   -5.8185 C.3       6 UNK        -0.1936 
     42 C          28.2651    4.1153   -7.7732 C.2       6 UNK         0.5081 
     43 O          28.6808    4.7835   -8.7206 O.2       6 UNK        -0.5248 
     44 N          27.0876    3.4723   -7.7852 N.am      7 UNK        -0.4718 
     45 CA         26.1980    3.3296   -8.9406 C.3       7 UNK         0.0273 
     46 CB         24.9659    2.5067   -8.5272 C.3       7 UNK        -0.1935 
     47 C          26.9365    2.6671  -10.1162 C.2       7 UNK         0.5018 
     48 O          27.3330    1.5058  -10.0026 O.2       7 UNK        -0.5186 
     49 N          27.1835    3.4523  -11.1756 N.am      8 UNK        -0.4240 
     50 CA         28.0199    3.1278  -12.3416 C.3       8 UNK         0.0235 
     51 CB         27.3616    2.0186  -13.1907 C.3       8 UNK        -0.2000 
     52 C          29.4899    2.8022  -11.9877 C.2       8 UNK         0.4941 
     53 O          30.1655    2.1378  -12.7754 O.2       8 UNK        -0.5273 
     54 N          29.9538    3.2659  -10.8140 N.am      9 UNK        -0.4262 
     55 CA         31.2552    2.9958  -10.1911 C.3       9 UNK         0.0264 
     56 CB         32.3821    3.7192  -10.9589 C.3       9 UNK        -0.1955 
     57 C          31.5328    1.4911   -9.9857 C.2       9 UNK         0.5031 
     58 O          32.6716    1.0555  -10.1675 O.2       9 UNK        -0.5390 
     59 N          30.4882    0.7214   -9.6412 N.am      10 UNK        -0.4204 
     60 CA         30.5399   -0.7329   -9.4876 C.3       10 UNK         0.0237 
     61 CB         29.1145   -1.2966   -9.3484 C.3       10 UNK        -0.1985 
     62 C          31.4415   -1.1901   -8.3299 C.2       10 UNK         0.4970 
     63 O          32.4299   -1.8814   -8.5816 O.2       10 UNK        -0.4914 
     64 N          31.0745   -0.8068   -7.0988 N.am      11 UNK        -0.4285 
     65 CA         31.7011   -1.2187   -5.8294 C.3       11 UNK         0.1007 
     66 C          31.8647   -2.7618   -5.7020 C.2       11 UNK         0.5703 
     67 N          30.7949   -3.5113   -5.9327 N.am      11 UNK        -0.7361 
     68 O          32.9435   -3.2820   -5.4234 O.2       11 UNK        -0.4986 
     69 C69        32.9911   -0.4108   -5.5225 C.3       12 UNK        -0.0947 
     70 S70        32.5929    1.2966   -5.0182 S.3       12 UNK        -0.2240 
     71 C71        32.9235    1.2320   -3.2262 C.3       12 UNK         0.0194 
     72 H72        29.5967   -7.4537   -6.5286 H         1 UNK         0.0906 
     73 H73        27.9016   -7.1973   -6.9515 H         1 UNK         0.0906 
     74 H74        28.9962   -5.8216   -6.8403 H         1 UNK         0.0906 
     75 H75        28.9207   -4.6937   -4.8908 H         1 UNK         0.3140 
     76 H76        28.4341   -5.9899   -2.3295 H         1 UNK         0.1085 
     77 H77        28.8126   -3.0303   -3.0779 H         1 UNK         0.0836 
     78 H78        28.6837   -3.6474   -1.4472 H         1 UNK         0.0836 
     79 H79        32.4298   -3.2799   -0.9224 H         1 UNK         0.0731 
     80 H80        30.8630   -3.3706   -0.1635 H         1 UNK         0.0731 
     81 H81        32.9874   -1.4107   -2.4965 H         1 UNK         0.1312 
     82 H82        30.5410    2.1051   -2.2405 H         1 UNK         0.1406 
     83 H83        29.2344   -1.5526   -0.4297 H         1 UNK         0.1631 
     84 H84        28.5955    2.0864   -0.7194 H         1 UNK         0.0717 
     85 H85        28.2145    0.6453    0.1835 H         1 UNK         0.0717 
     86 H86        28.2165    2.4211   -3.0421 H         1 UNK         0.0934 
     87 H87        26.6153    2.1863   -3.6975 H         1 UNK         0.0934 
     88 H88        28.9420    0.2325   -4.1602 H         1 UNK         0.0739 
     89 H89        26.1447    0.2170   -5.0884 H         1 UNK         0.3093 
     90 H90        25.6573   -1.3461   -6.9344 H         1 UNK         0.0818 
     91 H91        26.9145   -4.0547   -6.2676 H         1 UNK         0.0819 
     92 H92        25.5552   -3.7936   -7.3565 H         1 UNK         0.0819 
     93 H93        27.1375   -3.1414   -7.7493 H         1 UNK         0.0819 
     94 H94        25.1594   -3.2081   -4.7132 H         1 UNK         0.3041 
     95 H95        23.0945   -1.0364   -2.9058 H         1 UNK         0.0784 
     96 H96        21.4770   -1.1621   -4.7922 H         1 UNK         0.0793 
     97 H97        21.8420   -2.8661   -5.0249 H         1 UNK         0.0793 
     98 H98        21.0596   -2.3200   -3.5408 H         1 UNK         0.0793 
     99 H99        23.2809   -3.9468   -3.3330 H         1 UNK         0.3024 
    100 H100       24.7122   -4.4248   -0.2232 H         1 UNK         0.1171 
    101 H101       24.0572   -6.5692   -1.2297 H         1 UNK         0.0786 
    102 H102       22.7749   -5.4020   -1.4809 H         1 UNK         0.0786 
    103 H103       23.8437   -5.8384   -2.8119 H         1 UNK         0.0786 
    104 H104       26.7710   -4.9705   -0.8546 H         1 UNK         0.2977 
    105 H105       28.2816    3.3930   -4.6788 H         1 UNK         0.3127 
    106 H106       30.1313    3.6709   -6.8431 H         1 UNK         0.0770 
    107 H107       28.3313    5.7316   -5.4556 H         1 UNK         0.0814 
    108 H108       29.6907    6.1027   -6.5057 H         1 UNK         0.0814 
    109 H109       29.9735    5.3007   -4.9718 H         1 UNK         0.0814 
    110 H110       26.8468    2.9322   -6.9688 H         1 UNK         0.2983 
    111 H111       25.8647    4.3265   -9.2369 H         1 UNK         0.0947 
    112 H112       24.2815    2.3819   -9.3674 H         1 UNK         0.0806 
    113 H113       24.4098    2.9961   -7.7274 H         1 UNK         0.0806 
    114 H114       25.2420    1.5090   -8.1820 H         1 UNK         0.0806 
    115 H115       26.8464    4.4052  -11.1431 H         1 UNK         0.3000 
    116 H116       28.0551    4.0321  -12.9509 H         1 UNK         0.0850 
    117 H117       27.8926    1.8776  -14.1328 H         1 UNK         0.0810 
    118 H118       26.3294    2.2668  -13.4377 H         1 UNK         0.0810 
    119 H119       27.3617    1.0591  -12.6723 H         1 UNK         0.0810 
    120 H120       29.3231    3.8228  -10.2415 H         1 UNK         0.3040 
    121 H121       31.2098    3.4297   -9.1915 H         1 UNK         0.0766 
    122 H122       32.1704    4.7832  -11.0642 H         1 UNK         0.0812 
    123 H123       32.5213    3.3038  -11.9575 H         1 UNK         0.0812 
    124 H124       33.3339    3.6303  -10.4339 H         1 UNK         0.0812 
    125 H125       29.5800    1.1524   -9.5141 H         1 UNK         0.3205 
    126 H126       30.9638   -1.1402  -10.4079 H         1 UNK         0.0754 
    127 H127       29.1334   -2.3774   -9.2023 H         1 UNK         0.0769 
    128 H128       28.5241   -1.0998  -10.2435 H         1 UNK         0.0769 
    129 H129       28.5837   -0.8606   -8.5015 H         1 UNK         0.0769 
    130 H130       30.2535   -0.2113   -7.0025 H         1 UNK         0.2981 
    131 H131       30.9786   -0.9727   -5.0504 H         1 UNK         0.0541 
    132 H132       30.8815   -4.5117   -5.8842 H         1 UNK         0.3459 
    133 H133       29.9030   -3.0472   -6.0823 H         1 UNK         0.3459 
    134 H134       33.5768   -0.8770   -4.7300 H         1 UNK         0.0612 
    135 H135       33.6448   -0.3807   -6.3953 H         1 UNK         0.0612 
    136 H136       32.9517    2.2536   -2.8444 H         1 UNK         0.0624 
    137 H137       33.9190    0.8208   -3.0522 H         1 UNK         0.0624 
@<TRIPOS>BOND
     1    1    2 1    
     2    1   72 1    
     3    1   73 1    
     4    1   74 1    
     5    2    3 2    
     6    2    4 am   BACKBONE|DICT|INTERRES
     7    4    5 1    
     8    4   75 1    
     9    5    6 1    
    10    5   35 1    
    11    5   76 1    
    12    6    7 1    
    13    6   77 1    
    14    6   78 1    
    15    7    8 1    
    16    8    9 1    
    17    8   79 1    
    18    8   80 1    
    19    9   10 ar   
    20    9   14 ar   
    21   10   11 ar   
    22   10   81 1    
    23   11   12 ar   
    24   11   71 1    
    25   12   13 ar   
    26   12   82 1    
    27   13   14 ar   
    28   13   15 1    
    29   14   83 1    
    30   15   16 1    
    31   15   84 1    
    32   15   85 1    
    33   16   17 1    
    34   17   18 1    
    35   17   86 1    
    36   17   87 1    
    37   18   19 1    
    38   18   37 1    
    39   18   88 1    
    40   19   20 am   BACKBONE|DICT|INTERRES
    41   19   89 1    
    42   20   21 2    
    43   20   22 1    
    44   22   23 1    
    45   22   24 1    
    46   22   90 1    
    47   23   91 1    
    48   23   92 1    
    49   23   93 1    
    50   24   25 am   BACKBONE|DICT|INTERRES
    51   24   94 1    
    52   25   26 2    
    53   25   27 1    
    54   27   28 1    
    55   27   29 1    
    56   27   95 1    
    57   28   96 1    
    58   28   97 1    
    59   28   98 1    
    60   29   30 am   BACKBONE|DICT|INTERRES
    61   29   99 1    
    62   30   31 2    
    63   30   32 1    
    64   32   33 1    
    65   32   34 1    
    66   32  100 1    
    67   33  101 1    
    68   33  102 1    
    69   33  103 1    
    70   34   35 am   BACKBONE|DICT|INTERRES
    71   34  104 1    
    72   35   36 2    
    73   37   38 2    
    74   37   39 am   BACKBONE|DICT|INTERRES
    75   39   40 1    
    76   39  105 1    
    77   40   41 1    
    78   40   42 1    
    79   40  106 1    
    80   41  107 1    
    81   41  108 1    
    82   41  109 1    
    83   42   43 2    
    84   42   44 am   BACKBONE|DICT|INTERRES
    85   44   45 1    
    86   44  110 1    
    87   45   46 1    
    88   45   47 1    
    89   45  111 1    
    90   46  112 1    
    91   46  113 1    
    92   46  114 1    
    93   47   48 2    
    94   47   49 am   BACKBONE|DICT|INTERRES
    95   49   50 1    
    96   49  115 1    
    97   50   51 1    
    98   50   52 1    
    99   50  116 1    
   100   51  117 1    
   101   51  118 1    
   102   51  119 1    
   103   52   53 2    
   104   52   54 am   BACKBONE|DICT|INTERRES
   105   54   55 1    
   106   54  120 1    
   107   55   56 1    
   108   55   57 1    
   109   55  121 1    
   110   56  122 1    
   111   56  123 1    
   112   56  124 1    
   113   57   58 2    
   114   57   59 am   BACKBONE|DICT|INTERRES
   115   59   60 1    
   116   59  125 1    
   117   60   61 1    
   118   60   62 1    
   119   60  126 1    
   120   61  127 1    
   121   61  128 1    
   122   61  129 1    
   123   62   63 2    
   124   62   64 am   BACKBONE|DICT|INTERRES
   125   64   65 1    
   126   64  130 1    
   127   65   66 1    
   128   65   69 1    
   129   65  131 1    
   130   66   67 am   BACKBONE|DICT|INTERRES
   131   66   68 2    
   132   67  132 1    
   133   67  133 1    
   134   69   70 1    
   135   69  134 1    
   136   69  135 1    
   137   70   71 1    
   138   71  136 1    
   139   71  137 1    
@<TRIPOS>SUBSTRUCTURE
     1 UNK         1 GROUP             0       ****    0 ROOT    
