@<TRIPOS>MOLECULE
3R137
137   139    1
SMALL
USER_CHARGES


@<TRIPOS>ATOM
      1 CA         30.6890   -0.8523    1.2546 C.3       0 UNK        -0.2020 
      2 C          29.8423   -1.3731    0.1033 C.2       0 UNK         0.4855 
      3 O          29.4982   -0.6079   -0.7975 O.2       0 UNK        -0.5197 
      4 N          29.5130   -2.6703    0.1209 N.am      1 UNK        -0.4892 
      5 CA         28.6934   -3.3385   -0.8948 C.3       1 UNK         0.0835 
      6 C6         28.8073   -4.8846   -0.8257 C.3       12 UNK        -0.0855 
      7 S7         30.5335   -5.4843   -0.8082 S.3       12 UNK        -0.2931 
      8 C8         30.8052   -5.9483   -2.5518 C.3       12 UNK         0.0378 
      9 C9         30.7327   -4.7708   -3.5199 C.ar      12 UNK        -0.0802 
     10 C10        31.3699   -3.5576   -3.2333 C.ar      12 UNK        -0.0944 
     11 C11        31.3026   -2.4883   -4.1303 C.ar      12 UNK        -0.0787 
     12 C12        30.6048   -2.6403   -5.3310 C.ar      12 UNK        -0.0862 
     13 C13        29.9900   -3.8552   -5.6464 C.ar      12 UNK        -0.0733 
     14 C14        30.0546   -4.9141   -4.7346 C.ar      12 UNK        -0.0832 
     15 C15        29.3036   -4.0324   -6.9952 C.3       12 UNK         0.0240 
     16 S16        27.5823   -4.6157   -6.8581 S.3       12 UNK        -0.2522 
     17 C17        26.7699   -3.2283   -6.0018 C.3       12 UNK        -0.0967 
     18 CA         26.1838   -2.1888   -6.9927 C.3       5 UNK         0.0660 
     19 N          24.9135   -1.6354   -6.5261 N.am      5 UNK        -0.4015 
     20 C          23.9978   -1.0574   -7.3163 C.2       4 UNK         0.4946 
     21 O          24.0876   -0.9998   -8.5427 O.2       4 UNK        -0.5353 
     22 CA         22.7811   -0.4181   -6.6220 C.3       4 UNK         0.0277 
     23 CB         21.6186   -1.4208   -6.5441 C.3       4 UNK        -0.1981 
     24 N          23.0810    0.0852   -5.2780 N.am      4 UNK        -0.4209 
     25 C          23.8973    1.1178   -5.0232 C.2       3 UNK         0.4942 
     26 O          24.4481    1.7850   -5.8967 O.2       3 UNK        -0.5208 
     27 CA         24.1971    1.4182   -3.5454 C.3       3 UNK         0.0250 
     28 CB         23.1116    2.3280   -2.9485 C.3       3 UNK        -0.1990 
     29 N          24.3490    0.2176   -2.7140 N.am      3 UNK        -0.4232 
     30 C          25.2557   -0.7478   -2.9190 C.2       2 UNK         0.4993 
     31 O          26.0311   -0.7753   -3.8795 O.2       2 UNK        -0.5286 
     32 CA         25.2679   -1.9044   -1.9184 C.3       2 UNK         0.0209 
     33 CB         24.2854   -3.0084   -2.3464 C.3       2 UNK        -0.1931 
     34 N          26.6223   -2.4468   -1.8665 N.am      2 UNK        -0.4546 
     35 C          27.2236   -2.8960   -0.7611 C.2       1 UNK         0.5154 
     36 O          26.6651   -2.9779    0.3365 O.2       1 UNK        -0.5181 
     37 C          27.1756   -1.0493   -7.2830 C.2       5 UNK         0.5014 
     38 O          27.7584   -1.0137   -8.3658 O.2       5 UNK        -0.5248 
     39 N          27.3072   -0.1090   -6.3351 N.am      6 UNK        -0.4434 
     40 CA         28.1561    1.0809   -6.4450 C.3       6 UNK         0.0363 
     41 CB         28.1391    1.8467   -5.1141 C.3       6 UNK        -0.1936 
     42 C          27.7756    2.0079   -7.6149 C.2       6 UNK         0.5081 
     43 O          28.6567    2.6346   -8.1993 O.2       6 UNK        -0.5248 
     44 N          26.4830    2.0587   -7.9632 N.am      7 UNK        -0.4718 
     45 CA         25.9707    2.7499   -9.1485 C.3       7 UNK         0.0273 
     46 CB         24.4377    2.8256   -9.0680 C.3       7 UNK        -0.1935 
     47 C          26.4057    2.0994  -10.4759 C.2       7 UNK         0.5018 
     48 O          26.5075    2.8074  -11.4788 O.2       7 UNK        -0.5186 
     49 N          26.6446    0.7802  -10.4693 N.am      8 UNK        -0.4240 
     50 CA         27.1099    0.0182  -11.6284 C.3       8 UNK         0.0235 
     51 CB         26.5587   -1.4165  -11.5623 C.3       8 UNK        -0.2000 
     52 C          28.6433    0.0148  -11.7217 C.2       8 UNK         0.4941 
     53 O          29.1783    0.2267  -12.8109 O.2       8 UNK        -0.5273 
     54 N          29.3216   -0.2194  -10.5917 N.am      9 UNK        -0.4262 
     55 CA         30.7762   -0.2656  -10.4799 C.3       9 UNK         0.0264 
     56 CB         31.2699   -1.7049  -10.7211 C.3       9 UNK        -0.1955 
     57 C          31.1696    0.2520   -9.0932 C.2       9 UNK         0.5031 
     58 O          31.0792   -0.4952   -8.1185 O.2       9 UNK        -0.5390 
     59 N          31.5672    1.5276   -9.0209 N.am      10 UNK        -0.4204 
     60 CA         31.9665    2.1975   -7.7823 C.3       10 UNK         0.0237 
     61 CB         32.0257    3.7155   -8.0204 C.3       10 UNK        -0.1985 
     62 C          33.3182    1.6852   -7.2623 C.2       10 UNK         0.4970 
     63 O          34.2539    1.5273   -8.0506 O.2       10 UNK        -0.4914 
     64 N          33.4002    1.4821   -5.9442 N.am      11 UNK        -0.4285 
     65 CA         34.6429    1.1725   -5.2255 C.3       11 UNK         0.1007 
     66 C          35.4685    2.4571   -4.9461 C.2       11 UNK         0.5703 
     67 N          36.7866    2.3394   -4.8604 N.am      11 UNK        -0.7361 
     68 O          34.9278    3.5487   -4.7736 O.2       11 UNK        -0.4986 
     69 C69        34.3566    0.3945   -3.9152 C.3       12 UNK        -0.0947 
     70 S70        33.7703   -1.2968   -4.2547 S.3       12 UNK        -0.2240 
     71 C71        32.0105   -1.1809   -3.8154 C.3       12 UNK         0.0194 
     72 H72        30.1581   -0.0602    1.7821 H         1 UNK         0.0906 
     73 H73        30.9290   -1.6366    1.9725 H         1 UNK         0.0906 
     74 H74        31.6247   -0.4420    0.8755 H         1 UNK         0.0906 
     75 H75        29.8141   -3.2563    0.8864 H         1 UNK         0.3140 
     76 H76        29.0548   -3.0165   -1.8729 H         1 UNK         0.1085 
     77 H77        28.3254   -5.2623    0.0784 H         1 UNK         0.0836 
     78 H78        28.2755   -5.3423   -1.6622 H         1 UNK         0.0836 
     79 H79        31.7909   -6.4068   -2.6400 H         1 UNK         0.0731 
     80 H80        30.0822   -6.7194   -2.8230 H         1 UNK         0.0731 
     81 H81        31.9196   -3.4426   -2.3090 H         1 UNK         0.1312 
     82 H82        30.5651   -1.8188   -6.0327 H         1 UNK         0.1406 
     83 H83        29.5826   -5.8558   -4.9815 H         1 UNK         0.1631 
     84 H84        29.3249   -3.1055   -7.5702 H         1 UNK         0.0717 
     85 H85        29.8698   -4.7599   -7.5779 H         1 UNK         0.0717 
     86 H86        25.9682   -3.6750   -5.4120 H         1 UNK         0.0934 
     87 H87        27.4440   -2.7794   -5.2696 H         1 UNK         0.0934 
     88 H88        25.9798   -2.6907   -7.9418 H         1 UNK         0.0739 
     89 H89        24.7995   -1.5691   -5.5243 H         1 UNK         0.3093 
     90 H90        22.4631    0.4286   -7.2346 H         1 UNK         0.0818 
     91 H91        20.7223   -0.9584   -6.1303 H         1 UNK         0.0819 
     92 H92        21.3593   -1.7936   -7.5361 H         1 UNK         0.0819 
     93 H93        21.8681   -2.2847   -5.9267 H         1 UNK         0.0819 
     94 H94        22.6613   -0.4009   -4.4988 H         1 UNK         0.3041 
     95 H95        25.1457    1.9574   -3.5106 H         1 UNK         0.0784 
     96 H96        22.9945    3.2360   -3.5421 H         1 UNK         0.0793 
     97 H97        22.1401    1.8333   -2.9148 H         1 UNK         0.0793 
     98 H98        23.3665    2.6382   -1.9349 H         1 UNK         0.0793 
     99 H99        23.7396    0.1498   -1.9110 H         1 UNK         0.3024 
    100 H100       24.9824   -1.5163   -0.9375 H         1 UNK         0.1171 
    101 H101       24.2863   -3.8338   -1.6342 H         1 UNK         0.0786 
    102 H102       23.2640   -2.6292   -2.3983 H         1 UNK         0.0786 
    103 H103       24.5351   -3.4153   -3.3269 H         1 UNK         0.0786 
    104 H104       27.1532   -2.3212   -2.7191 H         1 UNK         0.2977 
    105 H105       26.8040   -0.2319   -5.4578 H         1 UNK         0.3127 
    106 H106       29.1738    0.7304   -6.6230 H         1 UNK         0.0770 
    107 H107       27.1428    2.2240   -4.8828 H         1 UNK         0.0814 
    108 H108       28.8130    2.7036   -5.1496 H         1 UNK         0.0814 
    109 H109       28.4596    1.2136   -4.2861 H         1 UNK         0.0814 
    110 H110       25.7987    1.6136   -7.3588 H         1 UNK         0.2983 
    111 H111       26.3651    3.7684   -9.1401 H         1 UNK         0.0947 
    112 H112       24.0252    3.3493   -9.9315 H         1 UNK         0.0806 
    113 H113       24.1136    3.3649   -8.1777 H         1 UNK         0.0806 
    114 H114       23.9868    1.8329   -9.0409 H         1 UNK         0.0806 
    115 H115       26.5892    0.2788   -9.5907 H         1 UNK         0.3000 
    116 H116       26.7209    0.4785  -12.5395 H         1 UNK         0.0850 
    117 H117       26.8546   -1.9868  -12.4437 H         1 UNK         0.0810 
    118 H118       25.4691   -1.4196  -11.5236 H         1 UNK         0.0810 
    119 H119       26.9230   -1.9573  -10.6887 H         1 UNK         0.0810 
    120 H120       28.8061   -0.4074   -9.7308 H         1 UNK         0.3040 
    121 H121       31.2292    0.3849  -11.2312 H         1 UNK         0.0766 
    122 H122       31.0418   -2.0373  -11.7338 H         1 UNK         0.0812 
    123 H123       30.8108   -2.4099  -10.0266 H         1 UNK         0.0812 
    124 H124       32.3506   -1.7731  -10.5909 H         1 UNK         0.0812 
    125 H125       31.6162    2.0754   -9.8671 H         1 UNK         0.3205 
    126 H126       31.1997    2.0006   -7.0305 H         1 UNK         0.0754 
    127 H127       32.3002    4.2436   -7.1060 H         1 UNK         0.0769 
    128 H128       31.0582    4.1045   -8.3392 H         1 UNK         0.0769 
    129 H129       32.7619    3.9775   -8.7815 H         1 UNK         0.0769 
    130 H130       32.5992    1.6835   -5.3661 H         1 UNK         0.2981 
    131 H131       35.2551    0.5333   -5.8657 H         1 UNK         0.0541 
    132 H132       37.2404    1.4481   -4.9884 H         1 UNK         0.3459 
    133 H133       37.3398    3.1596   -4.6667 H         1 UNK         0.3459 
    134 H134       33.6385    0.9269   -3.2888 H         1 UNK         0.0612 
    135 H135       35.2659    0.2977   -3.3189 H         1 UNK         0.0612 
    136 H136       31.5494   -0.3581   -4.3640 H         1 UNK         0.0624 
    137 H137       31.9105   -0.9472   -2.7541 H         1 UNK         0.0624 
@<TRIPOS>BOND
     1    1    2 1    
     2    1   72 1    
     3    1   73 1    
     4    1   74 1    
     5    2    3 2    
     6    2    4 am   BACKBONE|DICT|INTERRES
     7    4    5 1    
     8    4   75 1    
     9    5    6 1    
    10    5   35 1    
    11    5   76 1    
    12    6    7 1    
    13    6   77 1    
    14    6   78 1    
    15    7    8 1    
    16    8    9 1    
    17    8   79 1    
    18    8   80 1    
    19    9   10 ar   
    20    9   14 ar   
    21   10   11 ar   
    22   10   81 1    
    23   11   12 ar   
    24   11   71 1    
    25   12   13 ar   
    26   12   82 1    
    27   13   14 ar   
    28   13   15 1    
    29   14   83 1    
    30   15   16 1    
    31   15   84 1    
    32   15   85 1    
    33   16   17 1    
    34   17   18 1    
    35   17   86 1    
    36   17   87 1    
    37   18   19 1    
    38   18   37 1    
    39   18   88 1    
    40   19   20 am   BACKBONE|DICT|INTERRES
    41   19   89 1    
    42   20   21 2    
    43   20   22 1    
    44   22   23 1    
    45   22   24 1    
    46   22   90 1    
    47   23   91 1    
    48   23   92 1    
    49   23   93 1    
    50   24   25 am   BACKBONE|DICT|INTERRES
    51   24   94 1    
    52   25   26 2    
    53   25   27 1    
    54   27   28 1    
    55   27   29 1    
    56   27   95 1    
    57   28   96 1    
    58   28   97 1    
    59   28   98 1    
    60   29   30 am   BACKBONE|DICT|INTERRES
    61   29   99 1    
    62   30   31 2    
    63   30   32 1    
    64   32   33 1    
    65   32   34 1    
    66   32  100 1    
    67   33  101 1    
    68   33  102 1    
    69   33  103 1    
    70   34   35 am   BACKBONE|DICT|INTERRES
    71   34  104 1    
    72   35   36 2    
    73   37   38 2    
    74   37   39 am   BACKBONE|DICT|INTERRES
    75   39   40 1    
    76   39  105 1    
    77   40   41 1    
    78   40   42 1    
    79   40  106 1    
    80   41  107 1    
    81   41  108 1    
    82   41  109 1    
    83   42   43 2    
    84   42   44 am   BACKBONE|DICT|INTERRES
    85   44   45 1    
    86   44  110 1    
    87   45   46 1    
    88   45   47 1    
    89   45  111 1    
    90   46  112 1    
    91   46  113 1    
    92   46  114 1    
    93   47   48 2    
    94   47   49 am   BACKBONE|DICT|INTERRES
    95   49   50 1    
    96   49  115 1    
    97   50   51 1    
    98   50   52 1    
    99   50  116 1    
   100   51  117 1    
   101   51  118 1    
   102   51  119 1    
   103   52   53 2    
   104   52   54 am   BACKBONE|DICT|INTERRES
   105   54   55 1    
   106   54  120 1    
   107   55   56 1    
   108   55   57 1    
   109   55  121 1    
   110   56  122 1    
   111   56  123 1    
   112   56  124 1    
   113   57   58 2    
   114   57   59 am   BACKBONE|DICT|INTERRES
   115   59   60 1    
   116   59  125 1    
   117   60   61 1    
   118   60   62 1    
   119   60  126 1    
   120   61  127 1    
   121   61  128 1    
   122   61  129 1    
   123   62   63 2    
   124   62   64 am   BACKBONE|DICT|INTERRES
   125   64   65 1    
   126   64  130 1    
   127   65   66 1    
   128   65   69 1    
   129   65  131 1    
   130   66   67 am   BACKBONE|DICT|INTERRES
   131   66   68 2    
   132   67  132 1    
   133   67  133 1    
   134   69   70 1    
   135   69  134 1    
   136   69  135 1    
   137   70   71 1    
   138   71  136 1    
   139   71  137 1    
@<TRIPOS>SUBSTRUCTURE
     1 UNK         1 GROUP             0       ****    0 ROOT    
