@<TRIPOS>MOLECULE
3R137
137   139    1
SMALL
USER_CHARGES


@<TRIPOS>ATOM
      1 CA         24.6435   -6.2842   -1.3513 C.3       0 UNK        -0.2020 
      2 C          25.3759   -5.0432   -1.8365 C.2       0 UNK         0.4855 
      3 O          24.9865   -4.4618   -2.8509 O.2       0 UNK        -0.5197 
      4 N          26.4210   -4.6173   -1.1086 N.am      1 UNK        -0.4892 
      5 CA         27.3014   -3.4798   -1.4332 C.3       1 UNK         0.0835 
      6 C6         28.1885   -3.7632   -2.6722 C.3       12 UNK        -0.0855 
      7 S7         29.4517   -5.0511   -2.3858 S.3       12 UNK        -0.2931 
      8 C8         30.9212   -4.0921   -1.8598 C.3       12 UNK         0.0378 
      9 C9         31.1800   -2.8454   -2.7016 C.ar      12 UNK        -0.0802 
     10 C10        31.2589   -2.9298   -4.0950 C.ar      12 UNK        -0.0944 
     11 C11        31.4132   -1.7760   -4.8723 C.ar      12 UNK        -0.0787 
     12 C12        31.5258   -0.5357   -4.2385 C.ar      12 UNK        -0.0862 
     13 C13        31.4359   -0.4324   -2.8472 C.ar      12 UNK        -0.0733 
     14 C14        31.2738   -1.5937   -2.0852 C.ar      12 UNK        -0.0832 
     15 C15        31.4766    0.9282   -2.1550 C.3       12 UNK         0.0240 
     16 S16        30.3671    2.1835   -2.8935 S.3       12 UNK        -0.2522 
     17 C17        28.7745    1.3018   -3.0645 C.3       12 UNK        -0.0967 
     18 CA         28.3408    1.2018   -4.5529 C.3       5 UNK         0.0660 
     19 N          27.6802   -0.0671   -4.8708 N.am      5 UNK        -0.4015 
     20 C          27.5578   -0.5421   -6.1203 C.2       4 UNK         0.4946 
     21 O          28.0384    0.0098   -7.1135 O.2       4 UNK        -0.5353 
     22 CA         26.7540   -1.8385   -6.3138 C.3       4 UNK         0.0277 
     23 CB         27.6798   -3.0634   -6.2502 C.3       4 UNK        -0.1981 
     24 N          25.6249   -1.9934   -5.3859 N.am      4 UNK        -0.4209 
     25 C          24.5392   -1.2035   -5.4013 C.2       3 UNK         0.4942 
     26 O          24.4453   -0.1905   -6.0931 O.2       3 UNK        -0.5208 
     27 CA         23.3633   -1.6047   -4.4996 C.3       3 UNK         0.0250 
     28 CB         22.7335   -2.9315   -4.9566 C.3       3 UNK        -0.1990 
     29 N          23.7808   -1.6989   -3.1029 N.am      3 UNK        -0.4232 
     30 C          23.8887   -0.6403   -2.2848 C.2       2 UNK         0.4993 
     31 O          23.5461    0.4997   -2.5951 O.2       2 UNK        -0.5286 
     32 CA         24.5019   -0.8703   -0.8898 C.3       2 UNK         0.0209 
     33 CB         23.3943   -1.0583    0.1597 C.3       2 UNK        -0.1931 
     34 N          25.4296   -2.0027   -0.8197 N.am      2 UNK        -0.4546 
     35 C          26.5315   -2.1436   -1.5708 C.2       1 UNK         0.5154 
     36 O          26.9047   -1.2895   -2.3783 O.2       1 UNK        -0.5181 
     37 C          27.4853    2.4095   -4.9904 C.2       5 UNK         0.5014 
     38 O          28.0386    3.3880   -5.4925 O.2       5 UNK        -0.5248 
     39 N          26.1546    2.3122   -4.8345 N.am      6 UNK        -0.4434 
     40 CA         25.1951    3.3298   -5.2780 C.3       6 UNK         0.0363 
     41 CB         23.8230    3.0728   -4.6377 C.3       6 UNK        -0.1936 
     42 C          25.0758    3.3947   -6.8093 C.2       6 UNK         0.5081 
     43 O          24.9830    4.4897   -7.3642 O.2       6 UNK        -0.5248 
     44 N          25.1171    2.2268   -7.4662 N.am      7 UNK        -0.4718 
     45 CA         25.1766    2.0849   -8.9245 C.3       7 UNK         0.0273 
     46 CB         24.8918    0.6206   -9.2960 C.3       7 UNK        -0.1935 
     47 C          26.5206    2.5335   -9.5299 C.2       7 UNK         0.5018 
     48 O          26.5745    2.7864  -10.7340 O.2       7 UNK        -0.5186 
     49 N          27.5642    2.6161   -8.6904 N.am      8 UNK        -0.4240 
     50 CA         28.9499    2.9738   -9.0017 C.3       8 UNK         0.0235 
     51 CB         29.0518    4.4441   -9.4613 C.3       8 UNK        -0.2000 
     52 C          29.5938    1.9786   -9.9824 C.2       8 UNK         0.4941 
     53 O          30.1333    2.3843  -11.0153 O.2       8 UNK        -0.5273 
     54 N          29.5090    0.6845   -9.6423 N.am      9 UNK        -0.4262 
     55 CA         30.1427   -0.4089  -10.3843 C.3       9 UNK         0.0264 
     56 CB         29.5577   -1.7450   -9.8973 C.3       9 UNK        -0.1955 
     57 C          31.6811   -0.3847  -10.2672 C.2       9 UNK         0.5031 
     58 O          32.2295    0.3136   -9.4100 O.2       9 UNK        -0.5390 
     59 N          32.3493   -1.1686  -11.1272 N.am      10 UNK        -0.4204 
     60 CA         33.8094   -1.2247  -11.3132 C.3       10 UNK         0.0237 
     61 CB         34.1343   -2.2624  -12.4008 C.3       10 UNK        -0.1985 
     62 C          34.6502   -1.4975  -10.0491 C.2       10 UNK         0.4970 
     63 O          35.8263   -1.1325  -10.0222 O.2       10 UNK        -0.4914 
     64 N          34.0384   -2.1096   -9.0300 N.am      11 UNK        -0.4285 
     65 CA         34.5682   -2.2479   -7.6656 C.3       11 UNK         0.1007 
     66 C          34.7836   -0.9092   -6.8949 C.2       11 UNK         0.5703 
     67 N          34.2187    0.2147   -7.3222 N.am      11 UNK        -0.7361 
     68 O          35.5000   -0.8904   -5.8970 O.2       11 UNK        -0.4986 
     69 C69        33.7585   -3.2831   -6.8277 C.3       12 UNK        -0.0947 
     70 S70        31.9620   -3.3476   -7.1690 S.3       12 UNK        -0.2240 
     71 C71        31.3507   -1.8150   -6.3945 C.3       12 UNK         0.0194 
     72 H72        24.6751   -7.0590   -2.1167 H         1 UNK         0.0906 
     73 H73        25.0838   -6.6888   -0.4403 H         1 UNK         0.0906 
     74 H74        23.5992   -6.0476   -1.1489 H         1 UNK         0.0906 
     75 H75        26.6839   -5.1370   -0.2820 H         1 UNK         0.3140 
     76 H76        27.9615   -3.3358   -0.5765 H         1 UNK         0.1085 
     77 H77        28.6749   -2.8575   -3.0290 H         1 UNK         0.0836 
     78 H78        27.5660   -4.0956   -3.5027 H         1 UNK         0.0836 
     79 H79        31.7985   -4.7385   -1.9068 H         1 UNK         0.0731 
     80 H80        30.7944   -3.8257   -0.8094 H         1 UNK         0.0731 
     81 H81        31.1440   -3.8943   -4.5695 H         1 UNK         0.1312 
     82 H82        31.6338    0.3615   -4.8327 H         1 UNK         0.1406 
     83 H83        31.1938   -1.5200   -1.0090 H         1 UNK         0.1631 
     84 H84        32.4998    1.3054   -2.1828 H         1 UNK         0.0717 
     85 H85        31.2154    0.8283   -1.1002 H         1 UNK         0.0717 
     86 H86        28.8884    0.3080   -2.6327 H         1 UNK         0.0934 
     87 H87        28.0183    1.7925   -2.4482 H         1 UNK         0.0934 
     88 H88        29.2440    1.2259   -5.1674 H         1 UNK         0.0739 
     89 H89        27.2873   -0.5861   -4.0878 H         1 UNK         0.3093 
     90 H90        26.3284   -1.8058   -7.3190 H         1 UNK         0.0818 
     91 H91        28.3389   -3.0327   -5.3838 H         1 UNK         0.0819 
     92 H92        28.3226   -3.1004   -7.1302 H         1 UNK         0.0819 
     93 H93        27.1198   -3.9985   -6.2242 H         1 UNK         0.0819 
     94 H94        25.6339   -2.7942   -4.7687 H         1 UNK         0.3041 
     95 H95        22.5969   -0.8315   -4.5903 H         1 UNK         0.0784 
     96 H96        22.3961   -2.8642   -5.9918 H         1 UNK         0.0793 
     97 H97        23.4341   -3.7646   -4.8973 H         1 UNK         0.0793 
     98 H98        21.8643   -3.1847   -4.3494 H         1 UNK         0.0793 
     99 H99        24.1188   -2.6032   -2.7887 H         1 UNK         0.3024 
    100 H100       25.0666    0.0307   -0.6396 H         1 UNK         0.1171 
    101 H101       22.6985   -0.2180    0.1479 H         1 UNK         0.0786 
    102 H102       23.8067   -1.1197    1.1669 H         1 UNK         0.0786 
    103 H103       22.8145   -1.9640   -0.0235 H         1 UNK         0.0786 
    104 H104       25.1823   -2.7589   -0.1975 H         1 UNK         0.2977 
    105 H105       25.7659    1.4635   -4.4477 H         1 UNK         0.3127 
    106 H106       25.5511    4.3031   -4.9328 H         1 UNK         0.0770 
    107 H107       23.4173    2.1016   -4.9237 H         1 UNK         0.0814 
    108 H108       23.1010    3.8307   -4.9446 H         1 UNK         0.0814 
    109 H109       23.8815    3.1038   -3.5497 H         1 UNK         0.0814 
    110 H110       25.0921    1.3637   -6.9265 H         1 UNK         0.2983 
    111 H111       24.3952    2.7116   -9.3597 H         1 UNK         0.0947 
    112 H112       24.8752    0.4873  -10.3785 H         1 UNK         0.0806 
    113 H113       23.9246    0.2937   -8.9136 H         1 UNK         0.0806 
    114 H114       25.6543   -0.0488   -8.8965 H         1 UNK         0.0806 
    115 H115       27.3977    2.3411   -7.7316 H         1 UNK         0.3000 
    116 H116       29.5048    2.8834   -8.0662 H         1 UNK         0.0850 
    117 H117       30.0938    4.7395   -9.5897 H         1 UNK         0.0810 
    118 H118       28.6112    5.1185   -8.7269 H         1 UNK         0.0810 
    119 H119       28.5480    4.6093  -10.4141 H         1 UNK         0.0810 
    120 H120       29.0459    0.4414   -8.7700 H         1 UNK         0.3040 
    121 H121       29.8886   -0.2869  -11.4394 H         1 UNK         0.0766 
    122 H122       28.4756   -1.7723  -10.0274 H         1 UNK         0.0812 
    123 H123       29.7659   -1.9146   -8.8435 H         1 UNK         0.0812 
    124 H124       29.9692   -2.5897  -10.4507 H         1 UNK         0.0812 
    125 H125       31.8069   -1.7197  -11.7772 H         1 UNK         0.3205 
    126 H126       34.1149   -0.2430  -11.6807 H         1 UNK         0.0754 
    127 H127       35.2080   -2.3110  -12.5890 H         1 UNK         0.0769 
    128 H128       33.6554   -2.0115  -13.3476 H         1 UNK         0.0769 
    129 H129       33.8090   -3.2630  -12.1126 H         1 UNK         0.0769 
    130 H130       33.0704   -2.3719   -9.1395 H         1 UNK         0.2981 
    131 H131       35.5735   -2.6585   -7.7764 H         1 UNK         0.0541 
    132 H132       33.5938    0.2152   -8.1253 H         1 UNK         0.3459 
    133 H133       34.3863    1.0698   -6.8185 H         1 UNK         0.3459 
    134 H134       34.1414   -4.2798   -7.0508 H         1 UNK         0.0612 
    135 H135       33.9154   -3.1559   -5.7547 H         1 UNK         0.0612 
    136 H136       30.3054   -1.6923   -6.6691 H         1 UNK         0.0624 
    137 H137       31.8682   -0.9615   -6.8281 H         1 UNK         0.0624 
@<TRIPOS>BOND
     1    1    2 1    
     2    1   72 1    
     3    1   73 1    
     4    1   74 1    
     5    2    3 2    
     6    2    4 am   BACKBONE|DICT|INTERRES
     7    4    5 1    
     8    4   75 1    
     9    5    6 1    
    10    5   35 1    
    11    5   76 1    
    12    6    7 1    
    13    6   77 1    
    14    6   78 1    
    15    7    8 1    
    16    8    9 1    
    17    8   79 1    
    18    8   80 1    
    19    9   10 ar   
    20    9   14 ar   
    21   10   11 ar   
    22   10   81 1    
    23   11   12 ar   
    24   11   71 1    
    25   12   13 ar   
    26   12   82 1    
    27   13   14 ar   
    28   13   15 1    
    29   14   83 1    
    30   15   16 1    
    31   15   84 1    
    32   15   85 1    
    33   16   17 1    
    34   17   18 1    
    35   17   86 1    
    36   17   87 1    
    37   18   19 1    
    38   18   37 1    
    39   18   88 1    
    40   19   20 am   BACKBONE|DICT|INTERRES
    41   19   89 1    
    42   20   21 2    
    43   20   22 1    
    44   22   23 1    
    45   22   24 1    
    46   22   90 1    
    47   23   91 1    
    48   23   92 1    
    49   23   93 1    
    50   24   25 am   BACKBONE|DICT|INTERRES
    51   24   94 1    
    52   25   26 2    
    53   25   27 1    
    54   27   28 1    
    55   27   29 1    
    56   27   95 1    
    57   28   96 1    
    58   28   97 1    
    59   28   98 1    
    60   29   30 am   BACKBONE|DICT|INTERRES
    61   29   99 1    
    62   30   31 2    
    63   30   32 1    
    64   32   33 1    
    65   32   34 1    
    66   32  100 1    
    67   33  101 1    
    68   33  102 1    
    69   33  103 1    
    70   34   35 am   BACKBONE|DICT|INTERRES
    71   34  104 1    
    72   35   36 2    
    73   37   38 2    
    74   37   39 am   BACKBONE|DICT|INTERRES
    75   39   40 1    
    76   39  105 1    
    77   40   41 1    
    78   40   42 1    
    79   40  106 1    
    80   41  107 1    
    81   41  108 1    
    82   41  109 1    
    83   42   43 2    
    84   42   44 am   BACKBONE|DICT|INTERRES
    85   44   45 1    
    86   44  110 1    
    87   45   46 1    
    88   45   47 1    
    89   45  111 1    
    90   46  112 1    
    91   46  113 1    
    92   46  114 1    
    93   47   48 2    
    94   47   49 am   BACKBONE|DICT|INTERRES
    95   49   50 1    
    96   49  115 1    
    97   50   51 1    
    98   50   52 1    
    99   50  116 1    
   100   51  117 1    
   101   51  118 1    
   102   51  119 1    
   103   52   53 2    
   104   52   54 am   BACKBONE|DICT|INTERRES
   105   54   55 1    
   106   54  120 1    
   107   55   56 1    
   108   55   57 1    
   109   55  121 1    
   110   56  122 1    
   111   56  123 1    
   112   56  124 1    
   113   57   58 2    
   114   57   59 am   BACKBONE|DICT|INTERRES
   115   59   60 1    
   116   59  125 1    
   117   60   61 1    
   118   60   62 1    
   119   60  126 1    
   120   61  127 1    
   121   61  128 1    
   122   61  129 1    
   123   62   63 2    
   124   62   64 am   BACKBONE|DICT|INTERRES
   125   64   65 1    
   126   64  130 1    
   127   65   66 1    
   128   65   69 1    
   129   65  131 1    
   130   66   67 am   BACKBONE|DICT|INTERRES
   131   66   68 2    
   132   67  132 1    
   133   67  133 1    
   134   69   70 1    
   135   69  134 1    
   136   69  135 1    
   137   70   71 1    
   138   71  136 1    
   139   71  137 1    
@<TRIPOS>SUBSTRUCTURE
     1 UNK         1 GROUP             0       ****    0 ROOT    
