@<TRIPOS>MOLECULE
3R137
137   139    1
SMALL
USER_CHARGES


@<TRIPOS>ATOM
      1 CA         26.2221   -5.5812   -3.8317 C.3       0 UNK        -0.2020 
      2 C          27.7263   -5.3280   -3.8899 C.2       0 UNK         0.4855 
      3 O          28.3775   -5.7879   -4.8249 O.2       0 UNK        -0.5197 
      4 N          28.3236   -4.6191   -2.9236 N.am      1 UNK        -0.4892 
      5 CA         27.7008   -4.0025   -1.7443 C.3       1 UNK         0.0835 
      6 C6         28.7170   -3.7371   -0.5904 C.3       12 UNK        -0.0855 
      7 S7         30.0856   -4.9525   -0.4682 S.3       12 UNK        -0.2931 
      8 C8         31.5659   -3.9573   -0.8786 C.3       12 UNK         0.0378 
      9 C9         31.3938   -3.1297   -2.1472 C.ar      12 UNK        -0.0802 
     10 C10        31.4660   -3.7299   -3.4085 C.ar      12 UNK        -0.0944 
     11 C11        31.2446   -2.9740   -4.5654 C.ar      12 UNK        -0.0787 
     12 C12        30.9284   -1.6171   -4.4492 C.ar      12 UNK        -0.0862 
     13 C13        30.8836   -0.9995   -3.1980 C.ar      12 UNK        -0.0733 
     14 C14        31.1389   -1.7575   -2.0532 C.ar      12 UNK        -0.0832 
     15 C15        30.5292    0.4755   -3.0745 C.3       12 UNK         0.0240 
     16 S16        28.8715    0.6645   -2.3494 S.3       12 UNK        -0.2522 
     17 C17        28.0872    1.9702   -3.3537 C.3       12 UNK        -0.0967 
     18 CA         27.9355    1.6652   -4.8705 C.3       5 UNK         0.0660 
     19 N          27.5556    0.2841   -5.1763 N.am      5 UNK        -0.4015 
     20 C          27.6142   -0.2517   -6.4041 C.2       4 UNK         0.4946 
     21 O          28.1541    0.3010   -7.3657 O.2       4 UNK        -0.5353 
     22 CA         26.9383   -1.6143   -6.6127 C.3       4 UNK         0.0277 
     23 CB         27.9572   -2.7527   -6.4838 C.3       4 UNK        -0.1981 
     24 N          25.8316   -1.8338   -5.6792 N.am      4 UNK        -0.4209 
     25 C          24.6143   -1.2888   -5.8146 C.2       3 UNK         0.4942 
     26 O          24.2973   -0.5619   -6.7536 O.2       3 UNK        -0.5208 
     27 CA         23.5828   -1.5673   -4.7068 C.3       3 UNK         0.0250 
     28 CB         22.8287   -2.8758   -4.9918 C.3       3 UNK        -0.1990 
     29 N          24.1652   -1.6198   -3.3644 N.am      3 UNK        -0.4232 
     30 C          24.7747   -0.5913   -2.7586 C.2       2 UNK         0.4993 
     31 O          24.8819    0.5311   -3.2543 O.2       2 UNK        -0.5286 
     32 CA         25.4311   -0.8828   -1.3971 C.3       2 UNK         0.0209 
     33 CB         24.4073   -0.7182   -0.2627 C.3       2 UNK        -0.1931 
     34 N          26.0860   -2.1975   -1.2825 N.am      2 UNK        -0.4546 
     35 C          26.9906   -2.6906   -2.1425 C.2       1 UNK         0.5154 
     36 O          27.2739   -2.1447   -3.2109 O.2       1 UNK        -0.5181 
     37 C          26.9360    2.6415   -5.5233 C.2       5 UNK         0.5014 
     38 O          27.3555    3.5537   -6.2357 O.2       5 UNK        -0.5248 
     39 N          25.6329    2.4046   -5.2987 N.am      6 UNK        -0.4434 
     40 CA         24.5205    3.1964   -5.8343 C.3       6 UNK         0.0363 
     41 CB         23.1986    2.7011   -5.2268 C.3       6 UNK        -0.1936 
     42 C          24.4424    3.1947   -7.3707 C.2       6 UNK         0.5081 
     43 O          24.1845    4.2426   -7.9629 O.2       6 UNK        -0.5248 
     44 N          24.6961    2.0343   -7.9917 N.am      7 UNK        -0.4718 
     45 CA         24.7701    1.8643   -9.4474 C.3       7 UNK         0.0273 
     46 CB         24.6440    0.3691   -9.7849 C.3       7 UNK        -0.1935 
     47 C          26.0493    2.4440  -10.0817 C.2       7 UNK         0.5018 
     48 O          26.1342    2.4804  -11.3099 O.2       7 UNK        -0.5186 
     49 N          27.0196    2.8589   -9.2521 N.am      8 UNK        -0.4240 
     50 CA         28.3434    3.3754   -9.6157 C.3       8 UNK         0.0235 
     51 CB         28.2329    4.7059  -10.3911 C.3       8 UNK        -0.2000 
     52 C          29.2326    2.3336  -10.3229 C.2       8 UNK         0.4941 
     53 O          30.0936    2.7057  -11.1225 O.2       8 UNK        -0.5273 
     54 N          29.0379    1.0490   -9.9894 N.am      9 UNK        -0.4262 
     55 CA         29.9387   -0.0446  -10.3599 C.3       9 UNK         0.0264 
     56 CB         29.2019   -1.3884  -10.2527 C.3       9 UNK        -0.1955 
     57 C          31.2014   -0.0254   -9.4829 C.2       9 UNK         0.5031 
     58 O          32.2879   -0.3171   -9.9824 O.2       9 UNK        -0.5390 
     59 N          31.0338    0.3614   -8.2075 N.am      10 UNK        -0.4204 
     60 CA         32.0453    0.8030   -7.2337 C.3       10 UNK         0.0237 
     61 CB         32.7062    2.1086   -7.7188 C.3       10 UNK        -0.1985 
     62 C          33.1210   -0.2143   -6.7985 C.2       10 UNK         0.4970 
     63 O          33.7309    0.0089   -5.7527 O.2       10 UNK        -0.4914 
     64 N          33.3449   -1.2850   -7.5718 N.am      11 UNK        -0.4285 
     65 CA         34.3817   -2.3127   -7.3561 C.3       11 UNK         0.1007 
     66 C          35.8440   -1.7754   -7.4822 C.2       11 UNK         0.5703 
     67 N          36.0750   -0.6413   -8.1345 N.am      11 UNK        -0.7361 
     68 O          36.7925   -2.4082   -7.0234 O.2       11 UNK        -0.4986 
     69 C69        34.1341   -3.1596   -6.0678 C.3       12 UNK        -0.0947 
     70 S70        32.8783   -4.4632   -6.2989 S.3       12 UNK        -0.2240 
     71 C71        31.3048   -3.6164   -5.9456 C.3       12 UNK         0.0194 
     72 H72        25.9548   -6.1433   -2.9376 H         1 UNK         0.0906 
     73 H73        25.6644   -4.6465   -3.8452 H         1 UNK         0.0906 
     74 H74        25.9024   -6.1651   -4.6947 H         1 UNK         0.0906 
     75 H75        29.3122   -4.4269   -3.0082 H         1 UNK         0.3140 
     76 H76        26.9465   -4.6928   -1.3632 H         1 UNK         0.1085 
     77 H77        28.1860   -3.7518    0.3629 H         1 UNK         0.0836 
     78 H78        29.1371   -2.7336   -0.6477 H         1 UNK         0.0836 
     79 H79        32.4204   -4.6256   -0.9942 H         1 UNK         0.0731 
     80 H80        31.8006   -3.3112   -0.0312 H         1 UNK         0.0731 
     81 H81        31.6787   -4.7874   -3.4907 H         1 UNK         0.1312 
     82 H82        30.7104   -1.0403   -5.3353 H         1 UNK         0.1406 
     83 H83        31.0879   -1.2822   -1.0829 H         1 UNK         0.1631 
     84 H84        30.5842    0.9649   -4.0457 H         1 UNK         0.0717 
     85 H85        31.2585    0.9778   -2.4377 H         1 UNK         0.0717 
     86 H86        27.1116    2.1489   -2.8969 H         1 UNK         0.0934 
     87 H87        28.6492    2.8956   -3.2150 H         1 UNK         0.0934 
     88 H88        28.9040    1.8427   -5.3418 H         1 UNK         0.0739 
     89 H89        27.1828   -0.2693   -4.4136 H         1 UNK         0.3093 
     90 H90        26.5434   -1.6319   -7.6304 H         1 UNK         0.0818 
     91 H91        28.7730   -2.6312   -7.1947 H         1 UNK         0.0819 
     92 H92        28.3977   -2.7897   -5.4878 H         1 UNK         0.0819 
     93 H93        27.4981   -3.7210   -6.6829 H         1 UNK         0.0819 
     94 H94        26.0651   -2.3129   -4.8169 H         1 UNK         0.3041 
     95 H95        22.8602   -0.7487   -4.7200 H         1 UNK         0.0784 
     96 H96        22.3610   -2.8480   -5.9772 H         1 UNK         0.0793 
     97 H97        23.4927   -3.7407   -4.9716 H         1 UNK         0.0793 
     98 H98        22.0345   -3.0435   -4.2640 H         1 UNK         0.0793 
     99 H99        24.1230   -2.5029   -2.8775 H         1 UNK         0.3024 
    100 H100       26.2082   -0.1285   -1.2598 H         1 UNK         0.1171 
    101 H101       24.8841   -0.7833    0.7155 H         1 UNK         0.0786 
    102 H102       23.9180    0.2556   -0.3163 H         1 UNK         0.0786 
    103 H103       23.6265   -1.4784   -0.3082 H         1 UNK         0.0786 
    104 H104       25.9001   -2.7095   -0.4317 H         1 UNK         0.2977 
    105 H105       25.3798    1.6472   -4.6654 H         1 UNK         0.3127 
    106 H106       24.6746    4.2295   -5.5158 H         1 UNK         0.0770 
    107 H107       22.9983    1.6625   -5.4917 H         1 UNK         0.0814 
    108 H108       22.3572    3.2974   -5.5821 H         1 UNK         0.0814 
    109 H109       23.2104    2.7718   -4.1390 H         1 UNK         0.0814 
    110 H110       24.8051    1.1921   -7.4321 H         1 UNK         0.2983 
    111 H111       23.9240    2.3883   -9.8971 H         1 UNK         0.0947 
    112 H112       24.6527    0.2058  -10.8634 H         1 UNK         0.0806 
    113 H113       23.7104   -0.0460   -9.4049 H         1 UNK         0.0806 
    114 H114       25.4658   -0.2086   -9.3609 H         1 UNK         0.0806 
    115 H115       26.8445    2.7971   -8.2559 H         1 UNK         0.3000 
    116 H116       28.8431    3.5923   -8.6703 H         1 UNK         0.0850 
    117 H117       29.2131    5.1674  -10.5169 H         1 UNK         0.0810 
    118 H118       27.6051    5.4221   -9.8610 H         1 UNK         0.0810 
    119 H119       27.8130    4.5625  -11.3870 H         1 UNK         0.0810 
    120 H120       28.3527    0.8433   -9.2686 H         1 UNK         0.3040 
    121 H121       30.2498    0.0904  -11.3981 H         1 UNK         0.0766 
    122 H122       28.3522   -1.4265  -10.9345 H         1 UNK         0.0812 
    123 H123       28.8277   -1.5673   -9.2463 H         1 UNK         0.0812 
    124 H124       29.8621   -2.2178  -10.5100 H         1 UNK         0.0812 
    125 H125       30.0707    0.4808   -7.9037 H         1 UNK         0.3205 
    126 H126       31.4847    1.0456   -6.3304 H         1 UNK         0.0754 
    127 H127       33.2837    1.9559   -8.6313 H         1 UNK         0.0769 
    128 H128       33.3876    2.5086   -6.9664 H         1 UNK         0.0769 
    129 H129       31.9611    2.8785   -7.9204 H         1 UNK         0.0769 
    130 H130       32.8750   -1.3061   -8.4717 H         1 UNK         0.2981 
    131 H131       34.2941   -2.9870   -8.2085 H         1 UNK         0.0541 
    132 H132       35.3143   -0.1233   -8.5439 H         1 UNK         0.3459 
    133 H133       37.0219   -0.3082   -8.2244 H         1 UNK         0.3459 
    134 H134       35.0368   -3.6936   -5.7691 H         1 UNK         0.0612 
    135 H135       33.8794   -2.5355   -5.2115 H         1 UNK         0.0612 
    136 H136       30.4959   -4.3432   -6.0284 H         1 UNK         0.0624 
    137 H137       31.1339   -2.8756   -6.7273 H         1 UNK         0.0624 
@<TRIPOS>BOND
     1    1    2 1    
     2    1   72 1    
     3    1   73 1    
     4    1   74 1    
     5    2    3 2    
     6    2    4 am   BACKBONE|DICT|INTERRES
     7    4    5 1    
     8    4   75 1    
     9    5    6 1    
    10    5   35 1    
    11    5   76 1    
    12    6    7 1    
    13    6   77 1    
    14    6   78 1    
    15    7    8 1    
    16    8    9 1    
    17    8   79 1    
    18    8   80 1    
    19    9   10 ar   
    20    9   14 ar   
    21   10   11 ar   
    22   10   81 1    
    23   11   12 ar   
    24   11   71 1    
    25   12   13 ar   
    26   12   82 1    
    27   13   14 ar   
    28   13   15 1    
    29   14   83 1    
    30   15   16 1    
    31   15   84 1    
    32   15   85 1    
    33   16   17 1    
    34   17   18 1    
    35   17   86 1    
    36   17   87 1    
    37   18   19 1    
    38   18   37 1    
    39   18   88 1    
    40   19   20 am   BACKBONE|DICT|INTERRES
    41   19   89 1    
    42   20   21 2    
    43   20   22 1    
    44   22   23 1    
    45   22   24 1    
    46   22   90 1    
    47   23   91 1    
    48   23   92 1    
    49   23   93 1    
    50   24   25 am   BACKBONE|DICT|INTERRES
    51   24   94 1    
    52   25   26 2    
    53   25   27 1    
    54   27   28 1    
    55   27   29 1    
    56   27   95 1    
    57   28   96 1    
    58   28   97 1    
    59   28   98 1    
    60   29   30 am   BACKBONE|DICT|INTERRES
    61   29   99 1    
    62   30   31 2    
    63   30   32 1    
    64   32   33 1    
    65   32   34 1    
    66   32  100 1    
    67   33  101 1    
    68   33  102 1    
    69   33  103 1    
    70   34   35 am   BACKBONE|DICT|INTERRES
    71   34  104 1    
    72   35   36 2    
    73   37   38 2    
    74   37   39 am   BACKBONE|DICT|INTERRES
    75   39   40 1    
    76   39  105 1    
    77   40   41 1    
    78   40   42 1    
    79   40  106 1    
    80   41  107 1    
    81   41  108 1    
    82   41  109 1    
    83   42   43 2    
    84   42   44 am   BACKBONE|DICT|INTERRES
    85   44   45 1    
    86   44  110 1    
    87   45   46 1    
    88   45   47 1    
    89   45  111 1    
    90   46  112 1    
    91   46  113 1    
    92   46  114 1    
    93   47   48 2    
    94   47   49 am   BACKBONE|DICT|INTERRES
    95   49   50 1    
    96   49  115 1    
    97   50   51 1    
    98   50   52 1    
    99   50  116 1    
   100   51  117 1    
   101   51  118 1    
   102   51  119 1    
   103   52   53 2    
   104   52   54 am   BACKBONE|DICT|INTERRES
   105   54   55 1    
   106   54  120 1    
   107   55   56 1    
   108   55   57 1    
   109   55  121 1    
   110   56  122 1    
   111   56  123 1    
   112   56  124 1    
   113   57   58 2    
   114   57   59 am   BACKBONE|DICT|INTERRES
   115   59   60 1    
   116   59  125 1    
   117   60   61 1    
   118   60   62 1    
   119   60  126 1    
   120   61  127 1    
   121   61  128 1    
   122   61  129 1    
   123   62   63 2    
   124   62   64 am   BACKBONE|DICT|INTERRES
   125   64   65 1    
   126   64  130 1    
   127   65   66 1    
   128   65   69 1    
   129   65  131 1    
   130   66   67 am   BACKBONE|DICT|INTERRES
   131   66   68 2    
   132   67  132 1    
   133   67  133 1    
   134   69   70 1    
   135   69  134 1    
   136   69  135 1    
   137   70   71 1    
   138   71  136 1    
   139   71  137 1    
@<TRIPOS>SUBSTRUCTURE
     1 UNK         1 GROUP             0       ****    0 ROOT    
