@<TRIPOS>MOLECULE
3R137
137   139    1
SMALL
USER_CHARGES


@<TRIPOS>ATOM
      1 CA         27.5187   -3.3209    2.2054 C.3       0 UNK        -0.2020 
      2 C          27.4668   -2.9053    0.7437 C.2       0 UNK         0.4855 
      3 O          27.5760   -1.7188    0.4364 O.2       0 UNK        -0.5197 
      4 N          27.2776   -3.8666   -0.1682 N.am      1 UNK        -0.4892 
      5 CA         27.2670   -3.6816   -1.6284 C.3       1 UNK         0.0835 
      6 C6         27.7080   -4.9704   -2.3750 C.3       12 UNK        -0.0855 
      7 S7         29.2964   -5.6385   -1.7618 S.3       12 UNK        -0.2931 
      8 C8         30.4523   -5.2408   -3.1201 C.3       12 UNK         0.0378 
      9 C9         30.6693   -3.7485   -3.3747 C.ar      12 UNK        -0.0802 
     10 C10        30.9485   -3.3192   -4.6759 C.ar      12 UNK        -0.0944 
     11 C11        31.1753   -1.9690   -4.9565 C.ar      12 UNK        -0.0787 
     12 C12        31.1086   -1.0396   -3.9130 C.ar      12 UNK        -0.0862 
     13 C13        30.7925   -1.4407   -2.6122 C.ar      12 UNK        -0.0733 
     14 C14        30.6149   -2.8012   -2.3443 C.ar      12 UNK        -0.0832 
     15 C15        30.6252   -0.4164   -1.4911 C.3       12 UNK         0.0240 
     16 S16        29.6939    1.0833   -1.9794 S.3       12 UNK        -0.2522 
     17 C17        28.1315    0.4013   -2.6364 C.3       12 UNK        -0.0967 
     18 CA         28.0242    0.5640   -4.1770 C.3       5 UNK         0.0660 
     19 N          27.2299   -0.4990   -4.7933 N.am      5 UNK        -0.4015 
     20 C          27.2808   -0.8298   -6.0915 C.2       4 UNK         0.4946 
     21 O          28.0266   -0.2963   -6.9118 O.2       4 UNK        -0.5353 
     22 CA         26.3068   -1.9170   -6.5691 C.3       4 UNK         0.0277 
     23 CB         26.9204   -3.3111   -6.3682 C.3       4 UNK        -0.1981 
     24 N          25.0055   -1.8364   -5.8996 N.am      4 UNK        -0.4209 
     25 C          24.1410   -0.8252   -6.0796 C.2       3 UNK         0.4942 
     26 O          24.3378    0.1102   -6.8537 O.2       3 UNK        -0.5208 
     27 CA         22.8680   -0.8176   -5.2166 C.3       3 UNK         0.0250 
     28 CB         21.7480   -1.6138   -5.9043 C.3       3 UNK        -0.1990 
     29 N          23.0651   -1.3249   -3.8563 N.am      3 UNK        -0.4232 
     30 C          23.9526   -0.8549   -2.9683 C.2       2 UNK         0.4993 
     31 O          24.7341    0.0689   -3.2035 O.2       2 UNK        -0.5286 
     32 CA         24.0202   -1.5513   -1.5985 C.3       2 UNK         0.0209 
     33 CB         22.8792   -2.5620   -1.3384 C.3       2 UNK        -0.1931 
     34 N          25.3218   -2.1922   -1.3856 N.am      2 UNK        -0.4546 
     35 C          25.9192   -3.1222   -2.1461 C.2       1 UNK         0.5154 
     36 O          25.4460   -3.5360   -3.2068 O.2       1 UNK        -0.5181 
     37 C          27.5024    1.9528   -4.5877 C.2       5 UNK         0.5014 
     38 O          28.3052    2.8262   -4.9171 O.2       5 UNK        -0.5248 
     39 N          26.1708    2.1174   -4.6089 N.am      6 UNK        -0.4434 
     40 CA         25.4852    3.3306   -5.0628 C.3       6 UNK         0.0363 
     41 CB         23.9781    3.2034   -4.7913 C.3       6 UNK        -0.1936 
     42 C          25.7474    3.6518   -6.5455 C.2       6 UNK         0.5081 
     43 O          25.9874    4.8124   -6.8792 O.2       6 UNK        -0.5248 
     44 N          25.7205    2.6216   -7.4025 N.am      7 UNK        -0.4718 
     45 CA         26.0399    2.7245   -8.8297 C.3       7 UNK         0.0273 
     46 CB         25.4596    1.5012   -9.5587 C.3       7 UNK        -0.1935 
     47 C          27.5484    2.8360   -9.1182 C.2       7 UNK         0.5018 
     48 O          27.9105    3.2686  -10.2129 O.2       7 UNK        -0.5186 
     49 N          28.3857    2.4128   -8.1584 N.am      8 UNK        -0.4240 
     50 CA         29.8380    2.2178   -8.2543 C.3       8 UNK         0.0235 
     51 CB         30.5753    3.5630   -8.4160 C.3       8 UNK        -0.2000 
     52 C          30.2023    1.1854   -9.3407 C.2       8 UNK         0.4941 
     53 O          31.0993    1.4232  -10.1536 O.2       8 UNK        -0.5273 
     54 N          29.4617    0.0679   -9.3469 N.am      9 UNK        -0.4262 
     55 CA         29.5163   -1.0021  -10.3426 C.3       9 UNK         0.0264 
     56 CB         28.3848   -2.0042  -10.0578 C.3       9 UNK        -0.1955 
     57 C          30.8871   -1.6950  -10.3587 C.2       9 UNK         0.5031 
     58 O          31.1947   -2.4509   -9.4375 O.2       9 UNK        -0.5390 
     59 N          31.6990   -1.3869  -11.3784 N.am      10 UNK        -0.4204 
     60 CA         33.0835   -1.8252  -11.6163 C.3       10 UNK         0.0237 
     61 CB         33.1949   -3.3607  -11.7038 C.3       10 UNK        -0.1985 
     62 C          34.1235   -1.2449  -10.6373 C.2       10 UNK         0.4970 
     63 O          35.2518   -0.9923  -11.0621 O.2       10 UNK        -0.4914 
     64 N          33.7473   -1.0270   -9.3711 N.am      11 UNK        -0.4285 
     65 CA         34.5761   -0.3677   -8.3501 C.3       11 UNK         0.1007 
     66 C          34.8341    1.1487   -8.5994 C.2       11 UNK         0.5703 
     67 N          34.0134    1.8479   -9.3764 N.am      11 UNK        -0.7361 
     68 O          35.8099    1.6944   -8.0894 O.2       11 UNK        -0.4986 
     69 C69        34.0615   -0.6446   -6.9114 C.3       12 UNK        -0.0947 
     70 S70        32.3761   -0.0110   -6.6136 S.3       12 UNK        -0.2240 
     71 C71        31.4076   -1.5435   -6.4044 C.3       12 UNK         0.0194 
     72 H72        26.7217   -2.8305    2.7636 H         1 UNK         0.0906 
     73 H73        27.4065   -4.3981    2.3275 H         1 UNK         0.0906 
     74 H74        28.4723   -3.0277    2.6436 H         1 UNK         0.0906 
     75 H75        27.1768   -4.8237    0.1401 H         1 UNK         0.3140 
     76 H76        27.9970   -2.9107   -1.8690 H         1 UNK         0.1085 
     77 H77        27.7941   -4.7850   -3.4465 H         1 UNK         0.0836 
     78 H78        26.9513   -5.7494   -2.2647 H         1 UNK         0.0836 
     79 H79        30.0933   -5.7305   -4.0269 H         1 UNK         0.0731 
     80 H80        31.4190   -5.6911   -2.8914 H         1 UNK         0.0731 
     81 H81        30.9849   -4.0414   -5.4804 H         1 UNK         0.1312 
     82 H82        31.2604    0.0109   -4.1145 H         1 UNK         0.1406 
     83 H83        30.4051   -3.1188   -1.3320 H         1 UNK         0.1631 
     84 H84        31.6134   -0.1168   -1.1403 H         1 UNK         0.0717 
     85 H85        30.1166   -0.8663   -0.6367 H         1 UNK         0.0717 
     86 H86        28.0846   -0.6516   -2.3620 H         1 UNK         0.0934 
     87 H87        27.2890    0.8672   -2.1209 H         1 UNK         0.0934 
     88 H88        29.0233    0.4793   -4.6049 H         1 UNK         0.0739 
     89 H89        26.5132   -0.9172   -4.2167 H         1 UNK         0.3093 
     90 H90        26.1450   -1.7676   -7.6389 H         1 UNK         0.0818 
     91 H91        27.8769   -3.3957   -6.8857 H         1 UNK         0.0819 
     92 H92        26.2691   -4.0931   -6.7588 H         1 UNK         0.0819 
     93 H93        27.1062   -3.5219   -5.3160 H         1 UNK         0.0819 
     94 H94        24.7936   -2.5495   -5.2118 H         1 UNK         0.3041 
     95 H95        22.5408    0.2197   -5.1283 H         1 UNK         0.0784 
     96 H96        21.5677   -1.2405   -6.9136 H         1 UNK         0.0793 
     97 H97        21.9964   -2.6727   -5.9879 H         1 UNK         0.0793 
     98 H98        20.8079   -1.5305   -5.3585 H         1 UNK         0.0793 
     99 H99        22.4886   -2.1057   -3.5778 H         1 UNK         0.3024 
    100 H100       23.9359   -0.7561   -0.8557 H         1 UNK         0.1171 
    101 H101       22.9381   -2.9588   -0.3248 H         1 UNK         0.0786 
    102 H102       21.9005   -2.0897   -1.4350 H         1 UNK         0.0786 
    103 H103       22.9122   -3.4118   -2.0214 H         1 UNK         0.0786 
    104 H104       25.8456   -1.8745   -0.5756 H         1 UNK         0.2977 
    105 H105       25.5851    1.3597   -4.2627 H         1 UNK         0.3127 
    106 H106       25.8688    4.1638   -4.4703 H         1 UNK         0.0770 
    107 H107       23.5309    2.3979   -5.3736 H         1 UNK         0.0814 
    108 H108       23.4566    4.1240   -5.0561 H         1 UNK         0.0814 
    109 H109       23.7779    3.0074   -3.7377 H         1 UNK         0.0814 
    110 H110       25.4322    1.7059   -7.0660 H         1 UNK         0.2983 
    111 H111       25.5621    3.6215   -9.2298 H         1 UNK         0.0947 
    112 H112       25.6489    1.5564  -10.6316 H         1 UNK         0.0806 
    113 H113       24.3801    1.4333   -9.4228 H         1 UNK         0.0806 
    114 H114       25.9011    0.5716   -9.1962 H         1 UNK         0.0806 
    115 H115       27.9655    2.0577   -7.3092 H         1 UNK         0.3000 
    116 H116       30.1429    1.7864   -7.3003 H         1 UNK         0.0850 
    117 H117       31.6549    3.4213   -8.3563 H         1 UNK         0.0810 
    118 H118       30.2959    4.2634   -7.6291 H         1 UNK         0.0810 
    119 H119       30.3612    4.0315   -9.3770 H         1 UNK         0.0810 
    120 H120       28.8172   -0.0671   -8.5695 H         1 UNK         0.3040 
    121 H121       29.3328   -0.5556  -11.3219 H         1 UNK         0.0766 
    122 H122       27.4070   -1.5253  -10.1100 H         1 UNK         0.0812 
    123 H123       28.4857   -2.4520   -9.0687 H         1 UNK         0.0812 
    124 H124       28.3895   -2.8163  -10.7859 H         1 UNK         0.0812 
    125 H125       31.3619   -0.6941  -12.0337 H         1 UNK         0.3205 
    126 H126       33.3415   -1.4285  -12.5996 H         1 UNK         0.0754 
    127 H127       34.1981   -3.6592  -12.0107 H         1 UNK         0.0769 
    128 H128       32.4975   -3.7683  -12.4357 H         1 UNK         0.0769 
    129 H129       32.9962   -3.8420  -10.7458 H         1 UNK         0.0769 
    130 H130       32.8102   -1.2992   -9.0958 H         1 UNK         0.2981 
    131 H131       35.5602   -0.8362   -8.4126 H         1 UNK         0.0541 
    132 H132       34.2055    2.8234   -9.5353 H         1 UNK         0.3459 
    133 H133       33.1675    1.4364   -9.7519 H         1 UNK         0.3459 
    134 H134       34.0928   -1.7157   -6.7079 H         1 UNK         0.0612 
    135 H135       34.7282   -0.1920   -6.1754 H         1 UNK         0.0612 
    136 H136       30.4351   -1.3962   -6.8731 H         1 UNK         0.0624 
    137 H137       31.8897   -2.3518   -6.9543 H         1 UNK         0.0624 
@<TRIPOS>BOND
     1    1    2 1    
     2    1   72 1    
     3    1   73 1    
     4    1   74 1    
     5    2    3 2    
     6    2    4 am   BACKBONE|DICT|INTERRES
     7    4    5 1    
     8    4   75 1    
     9    5    6 1    
    10    5   35 1    
    11    5   76 1    
    12    6    7 1    
    13    6   77 1    
    14    6   78 1    
    15    7    8 1    
    16    8    9 1    
    17    8   79 1    
    18    8   80 1    
    19    9   10 ar   
    20    9   14 ar   
    21   10   11 ar   
    22   10   81 1    
    23   11   12 ar   
    24   11   71 1    
    25   12   13 ar   
    26   12   82 1    
    27   13   14 ar   
    28   13   15 1    
    29   14   83 1    
    30   15   16 1    
    31   15   84 1    
    32   15   85 1    
    33   16   17 1    
    34   17   18 1    
    35   17   86 1    
    36   17   87 1    
    37   18   19 1    
    38   18   37 1    
    39   18   88 1    
    40   19   20 am   BACKBONE|DICT|INTERRES
    41   19   89 1    
    42   20   21 2    
    43   20   22 1    
    44   22   23 1    
    45   22   24 1    
    46   22   90 1    
    47   23   91 1    
    48   23   92 1    
    49   23   93 1    
    50   24   25 am   BACKBONE|DICT|INTERRES
    51   24   94 1    
    52   25   26 2    
    53   25   27 1    
    54   27   28 1    
    55   27   29 1    
    56   27   95 1    
    57   28   96 1    
    58   28   97 1    
    59   28   98 1    
    60   29   30 am   BACKBONE|DICT|INTERRES
    61   29   99 1    
    62   30   31 2    
    63   30   32 1    
    64   32   33 1    
    65   32   34 1    
    66   32  100 1    
    67   33  101 1    
    68   33  102 1    
    69   33  103 1    
    70   34   35 am   BACKBONE|DICT|INTERRES
    71   34  104 1    
    72   35   36 2    
    73   37   38 2    
    74   37   39 am   BACKBONE|DICT|INTERRES
    75   39   40 1    
    76   39  105 1    
    77   40   41 1    
    78   40   42 1    
    79   40  106 1    
    80   41  107 1    
    81   41  108 1    
    82   41  109 1    
    83   42   43 2    
    84   42   44 am   BACKBONE|DICT|INTERRES
    85   44   45 1    
    86   44  110 1    
    87   45   46 1    
    88   45   47 1    
    89   45  111 1    
    90   46  112 1    
    91   46  113 1    
    92   46  114 1    
    93   47   48 2    
    94   47   49 am   BACKBONE|DICT|INTERRES
    95   49   50 1    
    96   49  115 1    
    97   50   51 1    
    98   50   52 1    
    99   50  116 1    
   100   51  117 1    
   101   51  118 1    
   102   51  119 1    
   103   52   53 2    
   104   52   54 am   BACKBONE|DICT|INTERRES
   105   54   55 1    
   106   54  120 1    
   107   55   56 1    
   108   55   57 1    
   109   55  121 1    
   110   56  122 1    
   111   56  123 1    
   112   56  124 1    
   113   57   58 2    
   114   57   59 am   BACKBONE|DICT|INTERRES
   115   59   60 1    
   116   59  125 1    
   117   60   61 1    
   118   60   62 1    
   119   60  126 1    
   120   61  127 1    
   121   61  128 1    
   122   61  129 1    
   123   62   63 2    
   124   62   64 am   BACKBONE|DICT|INTERRES
   125   64   65 1    
   126   64  130 1    
   127   65   66 1    
   128   65   69 1    
   129   65  131 1    
   130   66   67 am   BACKBONE|DICT|INTERRES
   131   66   68 2    
   132   67  132 1    
   133   67  133 1    
   134   69   70 1    
   135   69  134 1    
   136   69  135 1    
   137   70   71 1    
   138   71  136 1    
   139   71  137 1    
@<TRIPOS>SUBSTRUCTURE
     1 UNK         1 GROUP             0       ****    0 ROOT    
