@<TRIPOS>MOLECULE
3R137
137   139    1
SMALL
USER_CHARGES


@<TRIPOS>ATOM
      1 CA         28.3553   -6.0189   -4.1528 C.3       0 UNK        -0.2020 
      2 C          27.5329   -5.2191   -3.1552 C.2       0 UNK         0.4855 
      3 O          26.3040   -5.3029   -3.1634 O.2       0 UNK        -0.5197 
      4 N          28.2056   -4.4637   -2.2793 N.am      1 UNK        -0.4892 
      5 CA         27.5897   -3.6607   -1.2178 C.3       1 UNK         0.0835 
      6 C6         28.5927   -3.2428   -0.0989 C.3       12 UNK        -0.0855 
      7 S7         29.8968   -4.4746    0.2796 S.3       12 UNK        -0.2931 
      8 C8         31.4223   -3.6174   -0.2545 C.3       12 UNK         0.0378 
      9 C9         31.3417   -3.1510   -1.7021 C.ar      12 UNK        -0.0802 
     10 C10        31.5151   -4.0579   -2.7501 C.ar      12 UNK        -0.0944 
     11 C11        31.3505   -3.6472   -4.0765 C.ar      12 UNK        -0.0787 
     12 C12        30.9996   -2.3191   -4.3473 C.ar      12 UNK        -0.0862 
     13 C13        30.8486   -1.3932   -3.3088 C.ar      12 UNK        -0.0733 
     14 C14        31.0545   -1.8142   -1.9915 C.ar      12 UNK        -0.0832 
     15 C15        30.4497    0.0509   -3.6117 C.3       12 UNK         0.0240 
     16 S16        29.1063    0.6356   -2.5125 S.3       12 UNK        -0.2522 
     17 C17        28.2077    1.9308   -3.4401 C.3       12 UNK        -0.0967 
     18 CA         27.9082    1.6345   -4.9322 C.3       5 UNK         0.0660 
     19 N          27.4547    0.2632   -5.1768 N.am      5 UNK        -0.4015 
     20 C          27.3809   -0.2975   -6.3918 C.2       4 UNK         0.4946 
     21 O          27.7369    0.2635   -7.4298 O.2       4 UNK        -0.5353 
     22 CA         26.7775   -1.7069   -6.4669 C.3       4 UNK         0.0277 
     23 CB         27.8558   -2.7799   -6.2550 C.3       4 UNK        -0.1981 
     24 N          25.6944   -1.8902   -5.4977 N.am      4 UNK        -0.4209 
     25 C          24.4765   -1.3437   -5.6269 C.2       3 UNK         0.4942 
     26 O          24.1344   -0.6614   -6.5920 O.2       3 UNK        -0.5208 
     27 CA         23.4811   -1.5603   -4.4736 C.3       3 UNK         0.0250 
     28 CB         22.7723   -2.9161   -4.6194 C.3       3 UNK        -0.1990 
     29 N          24.0995   -1.4710   -3.1490 N.am      3 UNK        -0.4232 
     30 C          24.6886   -0.3724   -2.6565 C.2       2 UNK         0.4993 
     31 O          24.7443    0.7014   -3.2538 O.2       2 UNK        -0.5286 
     32 CA         25.3792   -0.4984   -1.2886 C.3       2 UNK         0.0209 
     33 CB         24.3969   -0.1517   -0.1587 C.3       2 UNK        -0.1931 
     34 N          25.9995   -1.8025   -1.0161 N.am      2 UNK        -0.4546 
     35 C          26.8934   -2.4149   -1.8068 C.2       1 UNK         0.5154 
     36 O          27.1913   -2.0118   -2.9353 O.2       1 UNK        -0.5181 
     37 C          26.9102    2.6583   -5.5116 C.2       5 UNK         0.5014 
     38 O          27.3341    3.5979   -6.1842 O.2       5 UNK        -0.5248 
     39 N          25.6050    2.4359   -5.2873 N.am      6 UNK        -0.4434 
     40 CA         24.5045    3.2330   -5.8406 C.3       6 UNK         0.0363 
     41 CB         23.1758    2.7859   -5.2110 C.3       6 UNK        -0.1936 
     42 C          24.4195    3.1687   -7.3753 C.2       6 UNK         0.5081 
     43 O          24.1063    4.1787   -8.0055 O.2       6 UNK        -0.5248 
     44 N          24.7361    2.0010   -7.9525 N.am      7 UNK        -0.4718 
     45 CA         24.8695    1.7917   -9.3982 C.3       7 UNK         0.0273 
     46 CB         24.8248    0.2831   -9.6923 C.3       7 UNK        -0.1935 
     47 C          26.1437    2.4176  -10.0014 C.2       7 UNK         0.5018 
     48 O          26.2579    2.4572  -11.2272 O.2       7 UNK        -0.5186 
     49 N          27.0694    2.8802   -9.1463 N.am      8 UNK        -0.4240 
     50 CA         28.3753    3.4649   -9.4629 C.3       8 UNK         0.0235 
     51 CB         28.2153    4.8098  -10.2044 C.3       8 UNK        -0.2000 
     52 C          29.3073    2.4752  -10.1854 C.2       8 UNK         0.4941 
     53 O          29.9843    2.8538  -11.1446 O.2       8 UNK        -0.5273 
     54 N          29.3251    1.2197   -9.7148 N.am      9 UNK        -0.4262 
     55 CA         30.2159    0.1690  -10.2077 C.3       9 UNK         0.0264 
     56 CB         29.7731   -1.1795   -9.6155 C.3       9 UNK        -0.1955 
     57 C          31.6808    0.4518   -9.8353 C.2       9 UNK         0.5031 
     58 O          31.9443    1.0011   -8.7619 O.2       9 UNK        -0.5390 
     59 N          32.6112   -0.0029  -10.6881 N.am      10 UNK        -0.4204 
     60 CA         34.0672    0.0945  -10.4909 C.3       10 UNK         0.0237 
     61 CB         34.7831   -0.4220  -11.7499 C.3       10 UNK        -0.1985 
     62 C          34.5887   -0.6355   -9.2356 C.2       10 UNK         0.4970 
     63 O          35.6761   -0.3157   -8.7546 O.2       10 UNK        -0.4914 
     64 N          33.7892   -1.5786   -8.7242 N.am      11 UNK        -0.4285 
     65 CA         33.9250   -2.2228   -7.4138 C.3       11 UNK         0.1007 
     66 C          33.8632   -1.2330   -6.2089 C.2       11 UNK         0.5703 
     67 N          33.1962   -0.0884   -6.3236 N.am      11 UNK        -0.7361 
     68 O          34.4586   -1.4923   -5.1666 O.2       11 UNK        -0.4986 
     69 C69        32.8670   -3.3514   -7.3052 C.3       12 UNK        -0.0947 
     70 S70        33.1671   -4.5580   -5.9727 S.3       12 UNK        -0.2240 
     71 C71        31.5198   -4.6553   -5.2045 C.3       12 UNK         0.0194 
     72 H72        27.8359   -6.9376   -4.4241 H         1 UNK         0.0906 
     73 H73        28.5226   -5.4417   -5.0600 H         1 UNK         0.0906 
     74 H74        29.3214   -6.2957   -3.7322 H         1 UNK         0.0906 
     75 H75        29.2120   -4.3861   -2.3376 H         1 UNK         0.3140 
     76 H76        26.8178   -4.2825   -0.7587 H         1 UNK         0.1085 
     77 H77        28.0411   -3.0641    0.8256 H         1 UNK         0.0836 
     78 H78        29.0617   -2.2852   -0.3221 H         1 UNK         0.0836 
     79 H79        32.2706   -4.2929   -0.1342 H         1 UNK         0.0731 
     80 H80        31.6091   -2.7732    0.4113 H         1 UNK         0.0731 
     81 H81        31.7568   -5.0890   -2.5294 H         1 UNK         0.1312 
     82 H82        30.8466   -2.0024   -5.3687 H         1 UNK         0.1406 
     83 H83        30.9384   -1.1053   -1.1832 H         1 UNK         0.1631 
     84 H84        30.1543    0.1315   -4.6560 H         1 UNK         0.0717 
     85 H85        31.3189    0.6973   -3.4863 H         1 UNK         0.0717 
     86 H86        27.2771    2.1026   -2.8950 H         1 UNK         0.0934 
     87 H87        28.7738    2.8603   -3.3553 H         1 UNK         0.0934 
     88 H88        28.8388    1.7686   -5.4875 H         1 UNK         0.0739 
     89 H89        27.1975   -0.2868   -4.3648 H         1 UNK         0.3093 
     90 H90        26.3675   -1.8367   -7.4705 H         1 UNK         0.0818 
     91 H91        28.2766   -2.7398   -5.2500 H         1 UNK         0.0819 
     92 H92        27.4458   -3.7775   -6.4091 H         1 UNK         0.0819 
     93 H93        28.6781   -2.6564   -6.9601 H         1 UNK         0.0819 
     94 H94        25.9347   -2.3579   -4.6307 H         1 UNK         0.3041 
     95 H95        22.7276   -0.7724   -4.5395 H         1 UNK         0.0784 
     96 H96        22.2912   -3.0014   -5.5949 H         1 UNK         0.0793 
     97 H97        23.4699   -3.7498   -4.5254 H         1 UNK         0.0793 
     98 H98        21.9952   -3.0411   -3.8651 H         1 UNK         0.0793 
     99 H99        24.1207   -2.3135   -2.5929 H         1 UNK         0.3024 
    100 H100       26.1831    0.2410   -1.2780 H         1 UNK         0.1171 
    101 H101       24.9013   -0.1045    0.8066 H         1 UNK         0.0786 
    102 H102       23.9359    0.8229   -0.3273 H         1 UNK         0.0786 
    103 H103       23.5923   -0.8843   -0.0835 H         1 UNK         0.0786 
    104 H104       25.8028   -2.2046   -0.1106 H         1 UNK         0.2977 
    105 H105       25.3364    1.6745   -4.6639 H         1 UNK         0.3127 
    106 H106       24.6803    4.2747   -5.5641 H         1 UNK         0.0770 
    107 H107       22.9624    1.7377   -5.4248 H         1 UNK         0.0814 
    108 H108       22.3422    3.3752   -5.5952 H         1 UNK         0.0814 
    109 H109       23.1887    2.9098   -4.1281 H         1 UNK         0.0814 
    110 H110       24.9063    1.1949   -7.3608 H         1 UNK         0.2983 
    111 H111       24.0161    2.2613   -9.8920 H         1 UNK         0.0947 
    112 H112       24.8711    0.0904  -10.7649 H         1 UNK         0.0806 
    113 H113       23.9031   -0.1670   -9.3232 H         1 UNK         0.0806 
    114 H114       25.6626   -0.2404   -9.2313 H         1 UNK         0.0806 
    115 H115       26.8755    2.7890   -8.1561 H         1 UNK         0.3000 
    116 H116       28.8516    3.6759   -8.5042 H         1 UNK         0.0850 
    117 H117       29.1789    5.3065  -10.3230 H         1 UNK         0.0810 
    118 H118       27.5663    5.4904   -9.6532 H         1 UNK         0.0810 
    119 H119       27.7942    4.6769  -11.2013 H         1 UNK         0.0810 
    120 H120       28.7488    0.9845   -8.9092 H         1 UNK         0.3040 
    121 H121       30.1227    0.1269  -11.2950 H         1 UNK         0.0766 
    122 H122       28.7259   -1.3866   -9.8372 H         1 UNK         0.0812 
    123 H123       29.8932   -1.1973   -8.5314 H         1 UNK         0.0812 
    124 H124       30.3598   -2.0030  -10.0239 H         1 UNK         0.0812 
    125 H125       32.3052   -0.4499  -11.5412 H         1 UNK         0.3205 
    126 H126       34.3098    1.1520  -10.3674 H         1 UNK         0.0754 
    127 H127       35.8659   -0.3341  -11.6479 H         1 UNK         0.0769 
    128 H128       34.4973    0.1500  -12.6330 H         1 UNK         0.0769 
    129 H129       34.5584   -1.4722  -11.9407 H         1 UNK         0.0769 
    130 H130       32.9293   -1.7678   -9.2138 H         1 UNK         0.2981 
    131 H131       34.9151   -2.6820   -7.3950 H         1 UNK         0.0541 
    132 H132       33.1907    0.5475   -5.5438 H         1 UNK         0.3459 
    133 H133       32.7464    0.1811   -7.1936 H         1 UNK         0.3459 
    134 H134       31.8680   -2.9229   -7.2175 H         1 UNK         0.0612 
    135 H135       32.8527   -3.9306   -8.2301 H         1 UNK         0.0612 
    136 H136       31.3922   -5.6681   -4.8209 H         1 UNK         0.0624 
    137 H137       30.7397   -4.5211   -5.9551 H         1 UNK         0.0624 
@<TRIPOS>BOND
     1    1    2 1    
     2    1   72 1    
     3    1   73 1    
     4    1   74 1    
     5    2    3 2    
     6    2    4 am   BACKBONE|DICT|INTERRES
     7    4    5 1    
     8    4   75 1    
     9    5    6 1    
    10    5   35 1    
    11    5   76 1    
    12    6    7 1    
    13    6   77 1    
    14    6   78 1    
    15    7    8 1    
    16    8    9 1    
    17    8   79 1    
    18    8   80 1    
    19    9   10 ar   
    20    9   14 ar   
    21   10   11 ar   
    22   10   81 1    
    23   11   12 ar   
    24   11   71 1    
    25   12   13 ar   
    26   12   82 1    
    27   13   14 ar   
    28   13   15 1    
    29   14   83 1    
    30   15   16 1    
    31   15   84 1    
    32   15   85 1    
    33   16   17 1    
    34   17   18 1    
    35   17   86 1    
    36   17   87 1    
    37   18   19 1    
    38   18   37 1    
    39   18   88 1    
    40   19   20 am   BACKBONE|DICT|INTERRES
    41   19   89 1    
    42   20   21 2    
    43   20   22 1    
    44   22   23 1    
    45   22   24 1    
    46   22   90 1    
    47   23   91 1    
    48   23   92 1    
    49   23   93 1    
    50   24   25 am   BACKBONE|DICT|INTERRES
    51   24   94 1    
    52   25   26 2    
    53   25   27 1    
    54   27   28 1    
    55   27   29 1    
    56   27   95 1    
    57   28   96 1    
    58   28   97 1    
    59   28   98 1    
    60   29   30 am   BACKBONE|DICT|INTERRES
    61   29   99 1    
    62   30   31 2    
    63   30   32 1    
    64   32   33 1    
    65   32   34 1    
    66   32  100 1    
    67   33  101 1    
    68   33  102 1    
    69   33  103 1    
    70   34   35 am   BACKBONE|DICT|INTERRES
    71   34  104 1    
    72   35   36 2    
    73   37   38 2    
    74   37   39 am   BACKBONE|DICT|INTERRES
    75   39   40 1    
    76   39  105 1    
    77   40   41 1    
    78   40   42 1    
    79   40  106 1    
    80   41  107 1    
    81   41  108 1    
    82   41  109 1    
    83   42   43 2    
    84   42   44 am   BACKBONE|DICT|INTERRES
    85   44   45 1    
    86   44  110 1    
    87   45   46 1    
    88   45   47 1    
    89   45  111 1    
    90   46  112 1    
    91   46  113 1    
    92   46  114 1    
    93   47   48 2    
    94   47   49 am   BACKBONE|DICT|INTERRES
    95   49   50 1    
    96   49  115 1    
    97   50   51 1    
    98   50   52 1    
    99   50  116 1    
   100   51  117 1    
   101   51  118 1    
   102   51  119 1    
   103   52   53 2    
   104   52   54 am   BACKBONE|DICT|INTERRES
   105   54   55 1    
   106   54  120 1    
   107   55   56 1    
   108   55   57 1    
   109   55  121 1    
   110   56  122 1    
   111   56  123 1    
   112   56  124 1    
   113   57   58 2    
   114   57   59 am   BACKBONE|DICT|INTERRES
   115   59   60 1    
   116   59  125 1    
   117   60   61 1    
   118   60   62 1    
   119   60  126 1    
   120   61  127 1    
   121   61  128 1    
   122   61  129 1    
   123   62   63 2    
   124   62   64 am   BACKBONE|DICT|INTERRES
   125   64   65 1    
   126   64  130 1    
   127   65   66 1    
   128   65   69 1    
   129   65  131 1    
   130   66   67 am   BACKBONE|DICT|INTERRES
   131   66   68 2    
   132   67  132 1    
   133   67  133 1    
   134   69   70 1    
   135   69  134 1    
   136   69  135 1    
   137   70   71 1    
   138   71  136 1    
   139   71  137 1    
@<TRIPOS>SUBSTRUCTURE
     1 UNK         1 GROUP             0       ****    0 ROOT    
