@<TRIPOS>MOLECULE
3R137
137   139    1
SMALL
USER_CHARGES


@<TRIPOS>ATOM
      1 CA         25.8866   -5.2992   -2.9835 C.3       0 UNK        -0.2020 
      2 C          26.4180   -3.9578   -2.5024 C.2       0 UNK         0.4855 
      3 O          25.6532   -3.1462   -1.9762 O.2       0 UNK        -0.5197 
      4 N          27.7275   -3.7323   -2.6633 N.am      1 UNK        -0.4892 
      5 CA         28.4743   -2.5984   -2.1083 C.3       1 UNK         0.0835 
      6 C6         30.0084   -2.7440   -2.2850 C.3       12 UNK        -0.0855 
      7 S7         30.6285   -4.4270   -1.9106 S.3       12 UNK        -0.2931 
      8 C8         31.8115   -4.7542   -3.2642 C.3       12 UNK         0.0378 
      9 C9         31.2447   -4.4416   -4.6433 C.ar      12 UNK        -0.0802 
     10 C10        31.7611   -3.3673   -5.3778 C.ar      12 UNK        -0.0944 
     11 C11        31.2175   -3.0350   -6.6202 C.ar      12 UNK        -0.0787 
     12 C12        30.1839   -3.8080   -7.1448 C.ar      12 UNK        -0.0862 
     13 C13        29.6278   -4.8514   -6.4044 C.ar      12 UNK        -0.0733 
     14 C14        30.1768   -5.1840   -5.1619 C.ar      12 UNK        -0.0832 
     15 C15        28.3885   -5.5562   -6.9332 C.3       12 UNK         0.0240 
     16 S16        26.8571   -4.7887   -6.2998 S.3       12 UNK        -0.2522 
     17 C17        27.1077   -3.0119   -6.6484 C.3       12 UNK        -0.0967 
     18 CA         25.7866   -2.2143   -6.7240 C.3       5 UNK         0.0660 
     19 N          24.9842   -2.2591   -5.4919 N.am      5 UNK        -0.4015 
     20 C          23.6451   -2.1658   -5.4965 C.2       4 UNK         0.4946 
     21 O          22.9721   -2.1209   -6.5279 O.2       4 UNK        -0.5353 
     22 CA         22.9033   -2.1065   -4.1536 C.3       4 UNK         0.0277 
     23 CB         22.5099   -3.5112   -3.6696 C.3       4 UNK        -0.1981 
     24 N          23.6399   -1.4086   -3.0960 N.am      4 UNK        -0.4209 
     25 C          23.3848   -0.1413   -2.7378 C.2       3 UNK         0.4942 
     26 O          22.6309    0.6105   -3.3571 O.2       3 UNK        -0.5208 
     27 CA         24.0388    0.3628   -1.4432 C.3       3 UNK         0.0250 
     28 CB         23.6160   -0.4865   -0.2308 C.3       3 UNK        -0.1990 
     29 N          25.4935    0.3879   -1.5391 N.am      3 UNK        -0.4232 
     30 C          26.2074    1.3410   -2.1543 C.2       2 UNK         0.4993 
     31 O          25.7115    2.3332   -2.6870 O.2       2 UNK        -0.5286 
     32 CA         27.7403    1.1768   -2.1599 C.3       2 UNK         0.0209 
     33 CB         28.3880    2.1461   -1.1579 C.3       2 UNK        -0.1931 
     34 N          28.1851   -0.1864   -1.8582 N.am      2 UNK        -0.4546 
     35 C          27.9896   -1.2415   -2.6581 C.2       1 UNK         0.5154 
     36 O          27.4458   -1.1656   -3.7652 O.2       1 UNK        -0.5181 
     37 C          26.0324   -0.7455   -7.1149 C.2       5 UNK         0.5014 
     38 O          25.7484   -0.3639   -8.2516 O.2       5 UNK        -0.5248 
     39 N          26.4913    0.0528   -6.1395 N.am      6 UNK        -0.4434 
     40 CA         26.5486    1.5187   -6.0906 C.3       6 UNK         0.0363 
     41 CB         25.1297    2.1189   -6.1278 C.3       6 UNK        -0.1936 
     42 C          27.4621    2.2195   -7.1110 C.2       6 UNK         0.5081 
     43 O          28.2806    3.0434   -6.7027 O.2       6 UNK        -0.5248 
     44 N          27.2785    1.9350   -8.4035 N.am      7 UNK        -0.4718 
     45 CA         27.8637    2.6897   -9.5153 C.3       7 UNK         0.0273 
     46 CB         26.8290    3.7103  -10.0274 C.3       7 UNK        -0.1935 
     47 C          28.3960    1.7902  -10.6414 C.2       7 UNK         0.5018 
     48 O          28.6288    2.2852  -11.7456 O.2       7 UNK        -0.5186 
     49 N          28.6056    0.4961  -10.3590 N.am      8 UNK        -0.4240 
     50 CA         29.2555   -0.4492  -11.2783 C.3       8 UNK         0.0235 
     51 CB         29.0402   -1.8822  -10.7672 C.3       8 UNK        -0.2000 
     52 C          30.7590   -0.1577  -11.4690 C.2       8 UNK         0.4941 
     53 O          31.3193   -0.4914  -12.5135 O.2       8 UNK        -0.5273 
     54 N          31.3634    0.4761  -10.4604 N.am      9 UNK        -0.4262 
     55 CA         32.7204    1.0007  -10.3832 C.3       9 UNK         0.0264 
     56 CB         33.7517   -0.1447  -10.2785 C.3       9 UNK        -0.1955 
     57 C          32.7313    1.9495   -9.1712 C.2       9 UNK         0.5031 
     58 O          31.6708    2.4566   -8.7903 O.2       9 UNK        -0.5390 
     59 N          33.8955    2.1434   -8.5396 N.am      10 UNK        -0.4204 
     60 CA         34.0401    2.8519   -7.2631 C.3       10 UNK         0.0237 
     61 CB         35.4884    3.3608   -7.1338 C.3       10 UNK        -0.1985 
     62 C          33.6196    1.9454   -6.0867 C.2       10 UNK         0.4970 
     63 O          34.4642    1.5444   -5.2841 O.2       10 UNK        -0.4914 
     64 N          32.3284    1.5960   -6.0418 N.am      11 UNK        -0.4285 
     65 CA         31.7453    0.6309   -5.0945 C.3       11 UNK         0.1007 
     66 C          31.5902    1.1496   -3.6367 C.2       11 UNK         0.5703 
     67 N          31.7158    2.4451   -3.3747 N.am      11 UNK        -0.7361 
     68 O          31.3617    0.3581   -2.7266 O.2       11 UNK        -0.4986 
     69 C69        30.4078    0.0337   -5.6126 C.3       12 UNK        -0.0947 
     70 S70        30.4290   -0.4929   -7.3606 S.3       12 UNK        -0.2240 
     71 C71        31.6909   -1.8101   -7.3819 C.3       12 UNK         0.0194 
     72 H72        25.2855   -5.1728   -3.8818 H         1 UNK         0.0906 
     73 H73        26.6938   -5.9942   -3.2143 H         1 UNK         0.0906 
     74 H74        25.2617   -5.7532   -2.2150 H         1 UNK         0.0906 
     75 H75        28.2992   -4.4194   -3.1326 H         1 UNK         0.3140 
     76 H76        28.2652   -2.6050   -1.0362 H         1 UNK         0.1085 
     77 H77        30.2951   -2.4526   -3.2935 H         1 UNK         0.0836 
     78 H78        30.5287   -2.0459   -1.6267 H         1 UNK         0.0836 
     79 H79        32.7177   -4.1747   -3.0803 H         1 UNK         0.0731 
     80 H80        32.1096   -5.8029   -3.2281 H         1 UNK         0.0731 
     81 H81        32.5615   -2.7678   -4.9663 H         1 UNK         0.1312 
     82 H82        29.7636   -3.5495   -8.1051 H         1 UNK         0.1406 
     83 H83        29.7511   -5.9920   -4.5825 H         1 UNK         0.1631 
     84 H84        28.3746   -5.5359   -8.0241 H         1 UNK         0.0717 
     85 H85        28.4055   -6.6086   -6.6465 H         1 UNK         0.0717 
     86 H86        27.7813   -2.6013   -5.8944 H         1 UNK         0.0934 
     87 H87        27.6225   -2.9230   -7.6055 H         1 UNK         0.0934 
     88 H88        25.2066   -2.6624   -7.5344 H         1 UNK         0.0739 
     89 H89        25.4895   -2.2558   -4.6162 H         1 UNK         0.3093 
     90 H90        21.9663   -1.5799   -4.3497 H         1 UNK         0.0818 
     91 H91        21.8131   -3.4549   -2.8332 H         1 UNK         0.0819 
     92 H92        22.0179   -4.0785   -4.4611 H         1 UNK         0.0819 
     93 H93        23.3708   -4.0866   -3.3394 H         1 UNK         0.0819 
     94 H94        24.3039   -1.9599   -2.5552 H         1 UNK         0.3041 
     95 H95        23.6853    1.3819   -1.2699 H         1 UNK         0.0784 
     96 H96        22.5292   -0.5412   -0.1530 H         1 UNK         0.0793 
     97 H97        23.9908   -1.5091   -0.2925 H         1 UNK         0.0793 
     98 H98        23.9838   -0.0539    0.6998 H         1 UNK         0.0793 
     99 H99        25.9881   -0.4007   -1.1487 H         1 UNK         0.3024 
    100 H100       28.0995    1.4326   -3.1581 H         1 UNK         0.1171 
    101 H101       29.4757    2.0820   -1.1903 H         1 UNK         0.0786 
    102 H102       28.1195    3.1789   -1.3850 H         1 UNK         0.0786 
    103 H103       28.0688    1.9435   -0.1347 H         1 UNK         0.0786 
    104 H104       28.6657   -0.3167   -0.9793 H         1 UNK         0.2977 
    105 H105       26.7778   -0.4023   -5.2726 H         1 UNK         0.3127 
    106 H106       26.9636    1.7536   -5.1122 H         1 UNK         0.0770 
    107 H107       24.6203    1.9087   -7.0687 H         1 UNK         0.0814 
    108 H108       25.1620    3.2027   -6.0094 H         1 UNK         0.0814 
    109 H109       24.5146    1.7255   -5.3181 H         1 UNK         0.0814 
    110 H110       26.6054    1.2038   -8.6311 H         1 UNK         0.2983 
    111 H111       28.7371    3.2429   -9.1618 H         1 UNK         0.0947 
    112 H112       27.2453    4.3350  -10.8188 H         1 UNK         0.0806 
    113 H113       26.5050    4.3795   -9.2302 H         1 UNK         0.0806 
    114 H114       25.9446    3.2156  -10.4303 H         1 UNK         0.0806 
    115 H115       28.3913    0.1672   -9.4281 H         1 UNK         0.3000 
    116 H116       28.7762   -0.3588  -12.2555 H         1 UNK         0.0850 
    117 H117       29.4705   -2.6103  -11.4561 H         1 UNK         0.0810 
    118 H118       27.9798   -2.1155  -10.6680 H         1 UNK         0.0810 
    119 H119       29.5112   -2.0342   -9.7976 H         1 UNK         0.0810 
    120 H120       30.7982    0.7536   -9.6656 H         1 UNK         0.3040 
    121 H121       32.9168    1.5924  -11.2791 H         1 UNK         0.0766 
    122 H122       34.7722    0.2323  -10.3507 H         1 UNK         0.0812 
    123 H123       33.6310   -0.8680  -11.0848 H         1 UNK         0.0812 
    124 H124       33.6636   -0.6847   -9.3357 H         1 UNK         0.0812 
    125 H125       34.7175    1.6717   -8.8883 H         1 UNK         0.3205 
    126 H126       33.3815    3.7234   -7.2583 H         1 UNK         0.0754 
    127 H127       35.6284    3.9059   -6.1993 H         1 UNK         0.0769 
    128 H128       35.7420    4.0431   -7.9455 H         1 UNK         0.0769 
    129 H129       36.2100    2.5428   -7.1460 H         1 UNK         0.0769 
    130 H130       31.7132    1.9378   -6.7723 H         1 UNK         0.2981 
    131 H131       32.4527   -0.1961   -5.0199 H         1 UNK         0.0541 
    132 H132       31.9037    3.0998   -4.1163 H         1 UNK         0.3459 
    133 H133       31.6284    2.7671   -2.4245 H         1 UNK         0.3459 
    134 H134       29.6072    0.7672   -5.5089 H         1 UNK         0.0612 
    135 H135       30.1076   -0.8211   -5.0058 H         1 UNK         0.0612 
    136 H136       32.6350   -1.4339   -6.9871 H         1 UNK         0.0624 
    137 H137       31.8827   -2.0892   -8.4187 H         1 UNK         0.0624 
@<TRIPOS>BOND
     1    1    2 1    
     2    1   72 1    
     3    1   73 1    
     4    1   74 1    
     5    2    3 2    
     6    2    4 am   BACKBONE|DICT|INTERRES
     7    4    5 1    
     8    4   75 1    
     9    5    6 1    
    10    5   35 1    
    11    5   76 1    
    12    6    7 1    
    13    6   77 1    
    14    6   78 1    
    15    7    8 1    
    16    8    9 1    
    17    8   79 1    
    18    8   80 1    
    19    9   10 ar   
    20    9   14 ar   
    21   10   11 ar   
    22   10   81 1    
    23   11   12 ar   
    24   11   71 1    
    25   12   13 ar   
    26   12   82 1    
    27   13   14 ar   
    28   13   15 1    
    29   14   83 1    
    30   15   16 1    
    31   15   84 1    
    32   15   85 1    
    33   16   17 1    
    34   17   18 1    
    35   17   86 1    
    36   17   87 1    
    37   18   19 1    
    38   18   37 1    
    39   18   88 1    
    40   19   20 am   BACKBONE|DICT|INTERRES
    41   19   89 1    
    42   20   21 2    
    43   20   22 1    
    44   22   23 1    
    45   22   24 1    
    46   22   90 1    
    47   23   91 1    
    48   23   92 1    
    49   23   93 1    
    50   24   25 am   BACKBONE|DICT|INTERRES
    51   24   94 1    
    52   25   26 2    
    53   25   27 1    
    54   27   28 1    
    55   27   29 1    
    56   27   95 1    
    57   28   96 1    
    58   28   97 1    
    59   28   98 1    
    60   29   30 am   BACKBONE|DICT|INTERRES
    61   29   99 1    
    62   30   31 2    
    63   30   32 1    
    64   32   33 1    
    65   32   34 1    
    66   32  100 1    
    67   33  101 1    
    68   33  102 1    
    69   33  103 1    
    70   34   35 am   BACKBONE|DICT|INTERRES
    71   34  104 1    
    72   35   36 2    
    73   37   38 2    
    74   37   39 am   BACKBONE|DICT|INTERRES
    75   39   40 1    
    76   39  105 1    
    77   40   41 1    
    78   40   42 1    
    79   40  106 1    
    80   41  107 1    
    81   41  108 1    
    82   41  109 1    
    83   42   43 2    
    84   42   44 am   BACKBONE|DICT|INTERRES
    85   44   45 1    
    86   44  110 1    
    87   45   46 1    
    88   45   47 1    
    89   45  111 1    
    90   46  112 1    
    91   46  113 1    
    92   46  114 1    
    93   47   48 2    
    94   47   49 am   BACKBONE|DICT|INTERRES
    95   49   50 1    
    96   49  115 1    
    97   50   51 1    
    98   50   52 1    
    99   50  116 1    
   100   51  117 1    
   101   51  118 1    
   102   51  119 1    
   103   52   53 2    
   104   52   54 am   BACKBONE|DICT|INTERRES
   105   54   55 1    
   106   54  120 1    
   107   55   56 1    
   108   55   57 1    
   109   55  121 1    
   110   56  122 1    
   111   56  123 1    
   112   56  124 1    
   113   57   58 2    
   114   57   59 am   BACKBONE|DICT|INTERRES
   115   59   60 1    
   116   59  125 1    
   117   60   61 1    
   118   60   62 1    
   119   60  126 1    
   120   61  127 1    
   121   61  128 1    
   122   61  129 1    
   123   62   63 2    
   124   62   64 am   BACKBONE|DICT|INTERRES
   125   64   65 1    
   126   64  130 1    
   127   65   66 1    
   128   65   69 1    
   129   65  131 1    
   130   66   67 am   BACKBONE|DICT|INTERRES
   131   66   68 2    
   132   67  132 1    
   133   67  133 1    
   134   69   70 1    
   135   69  134 1    
   136   69  135 1    
   137   70   71 1    
   138   71  136 1    
   139   71  137 1    
@<TRIPOS>SUBSTRUCTURE
     1 UNK         1 GROUP             0       ****    0 ROOT    
