@<TRIPOS>MOLECULE
3R137
137   139    1
SMALL
USER_CHARGES


@<TRIPOS>ATOM
      1 CA         22.7236   -3.9648   -2.9893 C.3       0 UNK        -0.2020 
      2 C          23.8036   -3.8489   -1.9250 C.2       0 UNK         0.4855 
      3 O          23.5827   -4.2366   -0.7783 O.2       0 UNK        -0.5197 
      4 N          24.9615   -3.2829   -2.2858 N.am      1 UNK        -0.4892 
      5 CA         26.1094   -3.0484   -1.4000 C.3       1 UNK         0.0835 
      6 C6         27.4293   -3.3950   -2.1373 C.3       12 UNK        -0.0855 
      7 S7         28.7773   -3.8601   -0.9996 S.3       12 UNK        -0.2931 
      8 C8         30.0176   -2.5627   -1.3499 C.3       12 UNK         0.0378 
      9 C9         30.6348   -2.5774   -2.7523 C.ar      12 UNK        -0.0802 
     10 C10        31.4166   -1.4832   -3.1388 C.ar      12 UNK        -0.0944 
     11 C11        32.0268   -1.4478   -4.3953 C.ar      12 UNK        -0.0787 
     12 C12        31.8420   -2.5118   -5.2802 C.ar      12 UNK        -0.0862 
     13 C13        31.0671   -3.6134   -4.9145 C.ar      12 UNK        -0.0733 
     14 C14        30.4734   -3.6444   -3.6490 C.ar      12 UNK        -0.0832 
     15 C15        30.9008   -4.7846   -5.8742 C.3       12 UNK         0.0240 
     16 S16        29.9735   -4.3382   -7.3779 S.3       12 UNK        -0.2522 
     17 C17        28.3351   -3.9180   -6.7026 C.3       12 UNK        -0.0967 
     18 CA         27.7127   -2.6566   -7.3521 C.3       5 UNK         0.0660 
     19 N          26.2608   -2.6516   -7.1393 N.am      5 UNK        -0.4015 
     20 C          25.3959   -1.7363   -7.5925 C.2       4 UNK         0.4946 
     21 O          25.7188   -0.7772   -8.2911 O.2       4 UNK        -0.5353 
     22 CA         23.9331   -1.8568   -7.1330 C.3       4 UNK         0.0277 
     23 CB         23.5388   -3.2725   -6.6519 C.3       4 UNK        -0.1981 
     24 N          23.6189   -0.8472   -6.1126 N.am      4 UNK        -0.4209 
     25 C          24.2112   -0.6940   -4.9190 C.2       3 UNK         0.4942 
     26 O          25.1171   -1.4289   -4.5087 O.2       3 UNK        -0.5208 
     27 CA         23.7168    0.4604   -4.0292 C.3       3 UNK         0.0250 
     28 CB         22.2233    0.7992   -4.2218 C.3       3 UNK        -0.1990 
     29 N          23.9709    0.0905   -2.6432 N.am      3 UNK        -0.4232 
     30 C          24.1652    0.9047   -1.5990 C.2       2 UNK         0.4993 
     31 O          24.0954    2.1322   -1.6626 O.2       2 UNK        -0.5286 
     32 CA         24.4881    0.2278   -0.2487 C.3       2 UNK         0.0209 
     33 CB         23.2831    0.3179    0.7022 C.3       2 UNK        -0.1931 
     34 N          24.8622   -1.1829   -0.4121 N.am      2 UNK        -0.4546 
     35 C          26.0506   -1.5958   -0.8759 C.2       1 UNK         0.5154 
     36 O          27.0224   -0.8478   -0.9733 O.2       1 UNK        -0.5181 
     37 C          28.3966   -1.3509   -6.8758 C.2       5 UNK         0.5014 
     38 O          29.3046   -0.8514   -7.5480 O.2       5 UNK        -0.5248 
     39 N          27.9065   -0.7915   -5.7584 N.am      6 UNK        -0.4434 
     40 CA         28.3673    0.4843   -5.2101 C.3       6 UNK         0.0363 
     41 CB         28.0376    0.5413   -3.7126 C.3       6 UNK        -0.1936 
     42 C          27.7754    1.7054   -5.9362 C.2       6 UNK         0.5081 
     43 O          28.4133    2.7570   -5.9398 O.2       6 UNK        -0.5248 
     44 N          26.5888    1.5592   -6.5464 N.am      7 UNK        -0.4718 
     45 CA         25.9413    2.6084   -7.3447 C.3       7 UNK         0.0273 
     46 CB         24.4265    2.3612   -7.4277 C.3       7 UNK        -0.1935 
     47 C          26.5568    2.7035   -8.7483 C.2       7 UNK         0.5018 
     48 O          26.7713    3.8092   -9.2454 O.2       7 UNK        -0.5186 
     49 N          26.8754    1.5409   -9.3358 N.am      8 UNK        -0.4240 
     50 CA         27.6760    1.3993  -10.5546 C.3       8 UNK         0.0235 
     51 CB         27.6190   -0.0643  -11.0221 C.3       8 UNK        -0.2000 
     52 C          29.1391    1.8394  -10.3601 C.2       8 UNK         0.4941 
     53 O          29.7902    2.2026  -11.3400 O.2       8 UNK        -0.5273 
     54 N          29.6095    1.8029   -9.1034 N.am      9 UNK        -0.4262 
     55 CA         30.9345    2.1908   -8.6193 C.3       9 UNK         0.0264 
     56 CB         31.1648    3.7066   -8.7941 C.3       9 UNK        -0.1955 
     57 C          32.0452    1.3308   -9.2402 C.2       9 UNK         0.5031 
     58 O          33.0306    1.8647   -9.7550 O.2       9 UNK        -0.5390 
     59 N          31.8784    0.0015   -9.1558 N.am      10 UNK        -0.4204 
     60 CA         32.8145   -0.9954   -9.6989 C.3       10 UNK         0.0237 
     61 CB         32.2003   -2.3952   -9.5582 C.3       10 UNK        -0.1985 
     62 C          34.2303   -0.9540   -9.0841 C.2       10 UNK         0.4970 
     63 O          35.1621   -1.4963   -9.6790 O.2       10 UNK        -0.4914 
     64 N          34.3670   -0.2933   -7.9283 N.am      11 UNK        -0.4285 
     65 CA         35.6371    0.0683   -7.2844 C.3       11 UNK         0.1007 
     66 C          36.4700    1.1276   -8.0664 C.2       11 UNK         0.5703 
     67 N          35.9013    1.8653   -9.0146 N.am      11 UNK        -0.7361 
     68 O          37.6617    1.2781   -7.8075 O.2       11 UNK        -0.4986 
     69 C69        35.4110    0.5317   -5.8197 C.3       12 UNK        -0.0947 
     70 S70        34.6595   -0.7650   -4.7838 S.3       12 UNK        -0.2240 
     71 C71        32.9054   -0.2774   -4.8014 C.3       12 UNK         0.0194 
     72 H72        22.8229   -4.9076   -3.5263 H         1 UNK         0.0906 
     73 H73        22.7808   -3.1481   -3.7074 H         1 UNK         0.0906 
     74 H74        21.7344   -3.9359   -2.5328 H         1 UNK         0.0906 
     75 H75        25.0697   -2.9137   -3.2273 H         1 UNK         0.3140 
     76 H76        26.0290   -3.7006   -0.5272 H         1 UNK         0.1085 
     77 H77        27.7381   -2.5912   -2.8084 H         1 UNK         0.0836 
     78 H78        27.2725   -4.2612   -2.7824 H         1 UNK         0.0836 
     79 H79        29.5630   -1.5885   -1.1656 H         1 UNK         0.0731 
     80 H80        30.8242   -2.6645   -0.6229 H         1 UNK         0.0731 
     81 H81        31.5618   -0.6605   -2.4517 H         1 UNK         0.1312 
     82 H82        32.3195   -2.4897   -6.2489 H         1 UNK         0.1406 
     83 H83        29.8929   -4.5112   -3.3686 H         1 UNK         0.1631 
     84 H84        30.4020   -5.6236   -5.3863 H         1 UNK         0.0717 
     85 H85        31.8879   -5.1453   -6.1667 H         1 UNK         0.0717 
     86 H86        27.7012   -4.7864   -6.8899 H         1 UNK         0.0934 
     87 H87        28.3766   -3.8150   -5.6172 H         1 UNK         0.0934 
     88 H88        27.8606   -2.7159   -8.4326 H         1 UNK         0.0739 
     89 H89        25.8947   -3.3803   -6.5453 H         1 UNK         0.3093 
     90 H90        23.3204   -1.6230   -8.0052 H         1 UNK         0.0818 
     91 H91        23.7252   -4.0159   -7.4284 H         1 UNK         0.0819 
     92 H92        24.0819   -3.5837   -5.7598 H         1 UNK         0.0819 
     93 H93        22.4751   -3.3199   -6.4184 H         1 UNK         0.0819 
     94 H94        22.8881   -0.1962   -6.3633 H         1 UNK         0.3041 
     95 H95        24.3218    1.3365   -4.2705 H         1 UNK         0.0784 
     96 H96        22.0215    1.1855   -5.2212 H         1 UNK         0.0793 
     97 H97        21.5884   -0.0741   -4.0658 H         1 UNK         0.0793 
     98 H98        21.9006    1.5692   -3.5206 H         1 UNK         0.0793 
     99 H99        24.1323   -0.8961   -2.5026 H         1 UNK         0.3024 
    100 H100       25.3253    0.7700    0.1974 H         1 UNK         0.1171 
    101 H101       23.5136   -0.1135    1.6765 H         1 UNK         0.0786 
    102 H102       22.9951    1.3568    0.8696 H         1 UNK         0.0786 
    103 H103       22.4114   -0.2013    0.3016 H         1 UNK         0.0786 
    104 H104       24.1221   -1.8674   -0.3268 H         1 UNK         0.2977 
    105 H105       27.1306   -1.2382   -5.2826 H         1 UNK         0.3127 
    106 H106       29.4538    0.5343   -5.3144 H         1 UNK         0.0770 
    107 H107       28.3730    1.4807   -3.2716 H         1 UNK         0.0814 
    108 H108       26.9665    0.4579   -3.5263 H         1 UNK         0.0814 
    109 H109       28.5362   -0.2619   -3.1711 H         1 UNK         0.0814 
    110 H110       26.1716    0.6397   -6.5798 H         1 UNK         0.2983 
    111 H111       26.0964    3.5706   -6.8507 H         1 UNK         0.0947 
    112 H112       24.1923    1.4072   -7.8999 H         1 UNK         0.0806 
    113 H113       23.9406    3.1397   -8.0176 H         1 UNK         0.0806 
    114 H114       23.9673    2.3780   -6.4406 H         1 UNK         0.0806 
    115 H115       26.5698    0.6759   -8.8902 H         1 UNK         0.3000 
    116 H116       27.2359    2.0329  -11.3274 H         1 UNK         0.0850 
    117 H117       28.1797   -0.2018  -11.9476 H         1 UNK         0.0810 
    118 H118       26.5931   -0.3800  -11.2130 H         1 UNK         0.0810 
    119 H119       28.0433   -0.7405  -10.2784 H         1 UNK         0.0810 
    120 H120       28.9901    1.4252   -8.3997 H         1 UNK         0.3040 
    121 H121       30.9423    1.9797   -7.5487 H         1 UNK         0.0766 
    122 H122       31.2055    3.9935   -9.8454 H         1 UNK         0.0812 
    123 H123       32.1066    4.0132   -8.3375 H         1 UNK         0.0812 
    124 H124       30.3708    4.2832   -8.3191 H         1 UNK         0.0812 
    125 H125       31.0369   -0.3518   -8.7083 H         1 UNK         0.3205 
    126 H126       32.9275   -0.7821  -10.7638 H         1 UNK         0.0754 
    127 H127       32.8338   -3.1509  -10.0246 H         1 UNK         0.0769 
    128 H128       31.2214   -2.4535  -10.0347 H         1 UNK         0.0769 
    129 H129       32.0808   -2.6724   -8.5126 H         1 UNK         0.0769 
    130 H130       33.5414    0.1189   -7.5267 H         1 UNK         0.2981 
    131 H131       36.2501   -0.8346   -7.2574 H         1 UNK         0.0541 
    132 H132       34.9158    1.7691   -9.2409 H         1 UNK         0.3459 
    133 H133       36.4608    2.5413   -9.5090 H         1 UNK         0.3459 
    134 H134       34.7950    1.4324   -5.7860 H         1 UNK         0.0612 
    135 H135       36.3618    0.7980   -5.3542 H         1 UNK         0.0612 
    136 H136       32.7613    0.5728   -4.1330 H         1 UNK         0.0624 
    137 H137       32.6118    0.0568   -5.7965 H         1 UNK         0.0624 
@<TRIPOS>BOND
     1    1    2 1    
     2    1   72 1    
     3    1   73 1    
     4    1   74 1    
     5    2    3 2    
     6    2    4 am   BACKBONE|DICT|INTERRES
     7    4    5 1    
     8    4   75 1    
     9    5    6 1    
    10    5   35 1    
    11    5   76 1    
    12    6    7 1    
    13    6   77 1    
    14    6   78 1    
    15    7    8 1    
    16    8    9 1    
    17    8   79 1    
    18    8   80 1    
    19    9   10 ar   
    20    9   14 ar   
    21   10   11 ar   
    22   10   81 1    
    23   11   12 ar   
    24   11   71 1    
    25   12   13 ar   
    26   12   82 1    
    27   13   14 ar   
    28   13   15 1    
    29   14   83 1    
    30   15   16 1    
    31   15   84 1    
    32   15   85 1    
    33   16   17 1    
    34   17   18 1    
    35   17   86 1    
    36   17   87 1    
    37   18   19 1    
    38   18   37 1    
    39   18   88 1    
    40   19   20 am   BACKBONE|DICT|INTERRES
    41   19   89 1    
    42   20   21 2    
    43   20   22 1    
    44   22   23 1    
    45   22   24 1    
    46   22   90 1    
    47   23   91 1    
    48   23   92 1    
    49   23   93 1    
    50   24   25 am   BACKBONE|DICT|INTERRES
    51   24   94 1    
    52   25   26 2    
    53   25   27 1    
    54   27   28 1    
    55   27   29 1    
    56   27   95 1    
    57   28   96 1    
    58   28   97 1    
    59   28   98 1    
    60   29   30 am   BACKBONE|DICT|INTERRES
    61   29   99 1    
    62   30   31 2    
    63   30   32 1    
    64   32   33 1    
    65   32   34 1    
    66   32  100 1    
    67   33  101 1    
    68   33  102 1    
    69   33  103 1    
    70   34   35 am   BACKBONE|DICT|INTERRES
    71   34  104 1    
    72   35   36 2    
    73   37   38 2    
    74   37   39 am   BACKBONE|DICT|INTERRES
    75   39   40 1    
    76   39  105 1    
    77   40   41 1    
    78   40   42 1    
    79   40  106 1    
    80   41  107 1    
    81   41  108 1    
    82   41  109 1    
    83   42   43 2    
    84   42   44 am   BACKBONE|DICT|INTERRES
    85   44   45 1    
    86   44  110 1    
    87   45   46 1    
    88   45   47 1    
    89   45  111 1    
    90   46  112 1    
    91   46  113 1    
    92   46  114 1    
    93   47   48 2    
    94   47   49 am   BACKBONE|DICT|INTERRES
    95   49   50 1    
    96   49  115 1    
    97   50   51 1    
    98   50   52 1    
    99   50  116 1    
   100   51  117 1    
   101   51  118 1    
   102   51  119 1    
   103   52   53 2    
   104   52   54 am   BACKBONE|DICT|INTERRES
   105   54   55 1    
   106   54  120 1    
   107   55   56 1    
   108   55   57 1    
   109   55  121 1    
   110   56  122 1    
   111   56  123 1    
   112   56  124 1    
   113   57   58 2    
   114   57   59 am   BACKBONE|DICT|INTERRES
   115   59   60 1    
   116   59  125 1    
   117   60   61 1    
   118   60   62 1    
   119   60  126 1    
   120   61  127 1    
   121   61  128 1    
   122   61  129 1    
   123   62   63 2    
   124   62   64 am   BACKBONE|DICT|INTERRES
   125   64   65 1    
   126   64  130 1    
   127   65   66 1    
   128   65   69 1    
   129   65  131 1    
   130   66   67 am   BACKBONE|DICT|INTERRES
   131   66   68 2    
   132   67  132 1    
   133   67  133 1    
   134   69   70 1    
   135   69  134 1    
   136   69  135 1    
   137   70   71 1    
   138   71  136 1    
   139   71  137 1    
@<TRIPOS>SUBSTRUCTURE
     1 UNK         1 GROUP             0       ****    0 ROOT    
