@<TRIPOS>MOLECULE
3R137
137   139    1
SMALL
USER_CHARGES


@<TRIPOS>ATOM
      1 CA         27.8655   -6.1551   -4.4670 C.3       0 UNK        -0.2020 
      2 C          27.2009   -5.2523   -3.4398 C.2       0 UNK         0.4855 
      3 O          26.0058   -4.9699   -3.5411 O.2       0 UNK        -0.5197 
      4 N          27.9761   -4.8004   -2.4475 N.am      1 UNK        -0.4892 
      5 CA         27.5437   -3.9144   -1.3629 C.3       1 UNK         0.0835 
      6 C6         28.5831   -3.8034   -0.2069 C.3       12 UNK        -0.0855 
      7 S7         30.3423   -4.0386   -0.6525 S.3       12 UNK        -0.2931 
      8 C8         30.9600   -2.3302   -0.8539 C.3       12 UNK         0.0378 
      9 C9         30.9122   -1.7920   -2.2845 C.ar      12 UNK        -0.0802 
     10 C10        30.9729   -2.6382   -3.3993 C.ar      12 UNK        -0.0944 
     11 C11        30.9786   -2.1184   -4.6958 C.ar      12 UNK        -0.0787 
     12 C12        30.9031   -0.7355   -4.8809 C.ar      12 UNK        -0.0862 
     13 C13        30.8571    0.1267   -3.7810 C.ar      12 UNK        -0.0733 
     14 C14        30.8716   -0.4083   -2.4881 C.ar      12 UNK        -0.0832 
     15 C15        30.8128    1.6360   -3.9989 C.3       12 UNK         0.0240 
     16 S16        29.3833    2.4648   -3.2209 S.3       12 UNK        -0.2522 
     17 C17        27.9968    1.3269   -3.5469 C.3       12 UNK        -0.0967 
     18 CA         27.6639    1.1222   -5.0470 C.3       5 UNK         0.0660 
     19 N          27.1445   -0.2311   -5.2893 N.am      5 UNK        -0.4015 
     20 C          26.7393   -0.7213   -6.4709 C.2       4 UNK         0.4946 
     21 O          26.7082   -0.0757   -7.5164 O.2       4 UNK        -0.5353 
     22 CA         26.2295   -2.1678   -6.4799 C.3       4 UNK         0.0277 
     23 CB         27.3981   -3.1585   -6.3962 C.3       4 UNK        -0.1981 
     24 N          25.2777   -2.4039   -5.3938 N.am      4 UNK        -0.4209 
     25 C          24.0311   -1.9078   -5.3817 C.2       3 UNK         0.4942 
     26 O          23.5171   -1.3158   -6.3312 O.2       3 UNK        -0.5208 
     27 CA         23.2344   -2.0577   -4.0753 C.3       3 UNK         0.0250 
     28 CB         22.5808   -3.4461   -3.9887 C.3       3 UNK        -0.1990 
     29 N          24.0494   -1.8192   -2.8816 N.am      3 UNK        -0.4232 
     30 C          24.6508   -0.6571   -2.5839 C.2       2 UNK         0.4993 
     31 O          24.5569    0.3599   -3.2692 O.2       2 UNK        -0.5286 
     32 CA         25.5398   -0.6307   -1.3290 C.3       2 UNK         0.0209 
     33 CB         24.7254   -0.1855   -0.1042 C.3       2 UNK        -0.1931 
     34 N          26.1917   -1.9116   -1.0438 N.am      2 UNK        -0.4546 
     35 C          27.0555   -2.5360   -1.8582 C.2       1 UNK         0.5154 
     36 O          27.4204   -2.0789   -2.9460 O.2       1 UNK        -0.5181 
     37 C          26.7424    2.2451   -5.5688 C.2       5 UNK         0.5014 
     38 O          27.2299    3.2109   -6.1585 O.2       5 UNK        -0.5248 
     39 N          25.4272    2.0805   -5.3670 N.am      6 UNK        -0.4434 
     40 CA         24.3788    2.9722   -5.8640 C.3       6 UNK         0.0363 
     41 CB         23.0356    2.5622   -5.2391 C.3       6 UNK        -0.1936 
     42 C          24.2619    3.0120   -7.3992 C.2       6 UNK         0.5081 
     43 O          23.7861    4.0173   -7.9287 O.2       6 UNK        -0.5248 
     44 N          24.6797    1.9402   -8.0876 N.am      7 UNK        -0.4718 
     45 CA         24.7169    1.8698   -9.5471 C.3       7 UNK         0.0273 
     46 CB         24.5149    0.4187  -10.0169 C.3       7 UNK        -0.1935 
     47 C          26.0269    2.4611  -10.0862 C.2       7 UNK         0.5018 
     48 O          25.9716    3.3499  -10.9377 O.2       7 UNK        -0.5186 
     49 N          27.1727    1.9824   -9.5803 N.am      8 UNK        -0.4240 
     50 CA         28.5083    2.4362   -9.9706 C.3       8 UNK         0.0235 
     51 CB         28.8438    1.9654  -11.4021 C.3       8 UNK        -0.2000 
     52 C          29.5583    1.8928   -8.9981 C.2       8 UNK         0.4941 
     53 O          29.3824    0.8105   -8.4363 O.2       8 UNK        -0.5273 
     54 N          30.6973    2.5892   -8.8963 N.am      9 UNK        -0.4262 
     55 CA         31.8862    2.1529   -8.1539 C.3       9 UNK         0.0264 
     56 CB         32.7457    3.3831   -7.8089 C.3       9 UNK        -0.1955 
     57 C          32.6801    1.0605   -8.9035 C.2       9 UNK         0.5031 
     58 O          33.8964    1.1769   -9.0646 O.2       9 UNK        -0.5390 
     59 N          31.9764    0.0095   -9.3464 N.am      10 UNK        -0.4204 
     60 CA         32.4947   -1.1112  -10.1399 C.3       10 UNK         0.0237 
     61 CB         31.3188   -2.0058  -10.5650 C.3       10 UNK        -0.1985 
     62 C          33.5729   -1.9435   -9.4236 C.2       10 UNK         0.4970 
     63 O          34.4071   -2.5568  -10.0903 O.2       10 UNK        -0.4914 
     64 N          33.5397   -1.9329   -8.0872 N.am      11 UNK        -0.4285 
     65 CA         34.5443   -2.5382   -7.2059 C.3       11 UNK         0.1007 
     66 C          35.8598   -1.7117   -7.0838 C.2       11 UNK         0.5703 
     67 N          35.9518   -0.4986   -7.6197 N.am      11 UNK        -0.7361 
     68 O          36.8276   -2.1896   -6.4965 O.2       11 UNK        -0.4986 
     69 C69        33.9408   -2.8464   -5.8116 C.3       12 UNK        -0.0947 
     70 S70        32.5911   -4.0767   -5.8785 S.3       12 UNK        -0.2240 
     71 C71        31.0809   -3.0512   -5.8957 C.3       12 UNK         0.0194 
     72 H72        28.1350   -7.1095   -4.0155 H         1 UNK         0.0906 
     73 H73        27.1919   -6.3540   -5.3001 H         1 UNK         0.0906 
     74 H74        28.7685   -5.6911   -4.8634 H         1 UNK         0.0906 
     75 H75        28.9592   -5.0337   -2.4272 H         1 UNK         0.3140 
     76 H76        26.6569   -4.3943   -0.9415 H         1 UNK         0.1085 
     77 H77        28.3624   -4.5892    0.5174 H         1 UNK         0.0836 
     78 H78        28.4708   -2.8776    0.3608 H         1 UNK         0.0836 
     79 H79        32.0004   -2.3091   -0.5271 H         1 UNK         0.0731 
     80 H80        30.4168   -1.6660   -0.1803 H         1 UNK         0.0731 
     81 H81        31.0419   -3.7084   -3.2704 H         1 UNK         0.1312 
     82 H82        30.8914   -0.3295   -5.8829 H         1 UNK         0.1406 
     83 H83        30.8458    0.2605   -1.6383 H         1 UNK         0.1631 
     84 H84        30.7988    1.8727   -5.0621 H         1 UNK         0.0717 
     85 H85        31.7294    2.0769   -3.6050 H         1 UNK         0.0717 
     86 H86        28.2495    0.3775   -3.0763 H         1 UNK         0.0934 
     87 H87        27.1263    1.6890   -2.9973 H         1 UNK         0.0934 
     88 H88        28.5835    1.1775   -5.6310 H         1 UNK         0.0739 
     89 H89        27.1530   -0.8609   -4.4916 H         1 UNK         0.3093 
     90 H90        25.7169   -2.3343   -7.4301 H         1 UNK         0.0818 
     91 H91        28.1206   -2.9742   -7.1926 H         1 UNK         0.0819 
     92 H92        27.9282   -3.0778   -5.4468 H         1 UNK         0.0819 
     93 H93        27.0498   -4.1846   -6.5071 H         1 UNK         0.0819 
     94 H94        25.6200   -2.8945   -4.5760 H         1 UNK         0.3041 
     95 H95        22.4411   -1.3069   -4.0869 H         1 UNK         0.0784 
     96 H96        21.9550   -3.6368   -4.8617 H         1 UNK         0.0793 
     97 H97        23.3252   -4.2421   -3.9413 H         1 UNK         0.0793 
     98 H98        21.9421   -3.5303   -3.1094 H         1 UNK         0.0793 
     99 H99        24.1971   -2.6061   -2.2667 H         1 UNK         0.3024 
    100 H100       26.3255    0.1061   -1.4970 H         1 UNK         0.1171 
    101 H101       25.3597   -0.0718    0.7752 H         1 UNK         0.0786 
    102 H102       24.2491    0.7797   -0.2834 H         1 UNK         0.0786 
    103 H103       23.9360   -0.8978    0.1392 H         1 UNK         0.0786 
    104 H104       25.9449   -2.3506   -0.1679 H         1 UNK         0.2977 
    105 H105       25.1176    1.2948   -4.7973 H         1 UNK         0.3127 
    106 H106       24.6186    3.9836   -5.5294 H         1 UNK         0.0770 
    107 H107       22.7656    1.5391   -5.5055 H         1 UNK         0.0814 
    108 H108       22.2290    3.2137   -5.5782 H         1 UNK         0.0814 
    109 H109       23.0680    2.6264   -4.1513 H         1 UNK         0.0814 
    110 H110       25.1293    1.1777   -7.5908 H         1 UNK         0.2983 
    111 H111       23.8924    2.4598   -9.9543 H         1 UNK         0.0947 
    112 H112       24.4753    0.3676  -11.1057 H         1 UNK         0.0806 
    113 H113       23.5789    0.0077   -9.6381 H         1 UNK         0.0806 
    114 H114       25.3214   -0.2386   -9.6929 H         1 UNK         0.0806 
    115 H115       27.1488    1.2604   -8.8592 H         1 UNK         0.3000 
    116 H116       28.5288    3.5272   -9.9266 H         1 UNK         0.0850 
    117 H117       29.8571    2.2523  -11.6865 H         1 UNK         0.0810 
    118 H118       28.1732    2.4026  -12.1414 H         1 UNK         0.0810 
    119 H119       28.7762    0.8802  -11.4911 H         1 UNK         0.0810 
    120 H120       30.7931    3.4418   -9.4300 H         1 UNK         0.3040 
    121 H121       31.5609    1.7069   -7.2138 H         1 UNK         0.0766 
    122 H122       32.1780    4.1158   -7.2350 H         1 UNK         0.0812 
    123 H123       33.1232    3.8760   -8.7056 H         1 UNK         0.0812 
    124 H124       33.6086    3.1009   -7.2040 H         1 UNK         0.0812 
    125 H125       30.9792    0.0117   -9.1422 H         1 UNK         0.3205 
    126 H126       32.9528   -0.6928  -11.0384 H         1 UNK         0.0754 
    127 H127       31.6623   -2.8370  -11.1825 H         1 UNK         0.0769 
    128 H128       30.5881   -1.4485  -11.1518 H         1 UNK         0.0769 
    129 H129       30.8027   -2.4306   -9.7028 H         1 UNK         0.0769 
    130 H130       32.8243   -1.3899   -7.6323 H         1 UNK         0.2981 
    131 H131       34.8407   -3.4904   -7.6502 H         1 UNK         0.0541 
    132 H132       35.1780   -0.0780   -8.1221 H         1 UNK         0.3459 
    133 H133       36.8175    0.0083   -7.5289 H         1 UNK         0.3459 
    134 H134       34.7043   -3.2623   -5.1517 H         1 UNK         0.0612 
    135 H135       33.5991   -1.9305   -5.3282 H         1 UNK         0.0612 
    136 H136       31.0336   -2.4944   -6.8322 H         1 UNK         0.0624 
    137 H137       30.2207   -3.7201   -5.8948 H         1 UNK         0.0624 
@<TRIPOS>BOND
     1    1    2 1    
     2    1   72 1    
     3    1   73 1    
     4    1   74 1    
     5    2    3 2    
     6    2    4 am   BACKBONE|DICT|INTERRES
     7    4    5 1    
     8    4   75 1    
     9    5    6 1    
    10    5   35 1    
    11    5   76 1    
    12    6    7 1    
    13    6   77 1    
    14    6   78 1    
    15    7    8 1    
    16    8    9 1    
    17    8   79 1    
    18    8   80 1    
    19    9   10 ar   
    20    9   14 ar   
    21   10   11 ar   
    22   10   81 1    
    23   11   12 ar   
    24   11   71 1    
    25   12   13 ar   
    26   12   82 1    
    27   13   14 ar   
    28   13   15 1    
    29   14   83 1    
    30   15   16 1    
    31   15   84 1    
    32   15   85 1    
    33   16   17 1    
    34   17   18 1    
    35   17   86 1    
    36   17   87 1    
    37   18   19 1    
    38   18   37 1    
    39   18   88 1    
    40   19   20 am   BACKBONE|DICT|INTERRES
    41   19   89 1    
    42   20   21 2    
    43   20   22 1    
    44   22   23 1    
    45   22   24 1    
    46   22   90 1    
    47   23   91 1    
    48   23   92 1    
    49   23   93 1    
    50   24   25 am   BACKBONE|DICT|INTERRES
    51   24   94 1    
    52   25   26 2    
    53   25   27 1    
    54   27   28 1    
    55   27   29 1    
    56   27   95 1    
    57   28   96 1    
    58   28   97 1    
    59   28   98 1    
    60   29   30 am   BACKBONE|DICT|INTERRES
    61   29   99 1    
    62   30   31 2    
    63   30   32 1    
    64   32   33 1    
    65   32   34 1    
    66   32  100 1    
    67   33  101 1    
    68   33  102 1    
    69   33  103 1    
    70   34   35 am   BACKBONE|DICT|INTERRES
    71   34  104 1    
    72   35   36 2    
    73   37   38 2    
    74   37   39 am   BACKBONE|DICT|INTERRES
    75   39   40 1    
    76   39  105 1    
    77   40   41 1    
    78   40   42 1    
    79   40  106 1    
    80   41  107 1    
    81   41  108 1    
    82   41  109 1    
    83   42   43 2    
    84   42   44 am   BACKBONE|DICT|INTERRES
    85   44   45 1    
    86   44  110 1    
    87   45   46 1    
    88   45   47 1    
    89   45  111 1    
    90   46  112 1    
    91   46  113 1    
    92   46  114 1    
    93   47   48 2    
    94   47   49 am   BACKBONE|DICT|INTERRES
    95   49   50 1    
    96   49  115 1    
    97   50   51 1    
    98   50   52 1    
    99   50  116 1    
   100   51  117 1    
   101   51  118 1    
   102   51  119 1    
   103   52   53 2    
   104   52   54 am   BACKBONE|DICT|INTERRES
   105   54   55 1    
   106   54  120 1    
   107   55   56 1    
   108   55   57 1    
   109   55  121 1    
   110   56  122 1    
   111   56  123 1    
   112   56  124 1    
   113   57   58 2    
   114   57   59 am   BACKBONE|DICT|INTERRES
   115   59   60 1    
   116   59  125 1    
   117   60   61 1    
   118   60   62 1    
   119   60  126 1    
   120   61  127 1    
   121   61  128 1    
   122   61  129 1    
   123   62   63 2    
   124   62   64 am   BACKBONE|DICT|INTERRES
   125   64   65 1    
   126   64  130 1    
   127   65   66 1    
   128   65   69 1    
   129   65  131 1    
   130   66   67 am   BACKBONE|DICT|INTERRES
   131   66   68 2    
   132   67  132 1    
   133   67  133 1    
   134   69   70 1    
   135   69  134 1    
   136   69  135 1    
   137   70   71 1    
   138   71  136 1    
   139   71  137 1    
@<TRIPOS>SUBSTRUCTURE
     1 UNK         1 GROUP             0       ****    0 ROOT    
