@<TRIPOS>MOLECULE
3R137
137   139    1
SMALL
USER_CHARGES


@<TRIPOS>ATOM
      1 CA         25.5800   -7.5789    0.5654 C.3       0 UNK        -0.2020 
      2 C          25.8632   -6.0961    0.3755 C.2       0 UNK         0.4855 
      3 O          25.4837   -5.2870    1.2230 O.2       0 UNK        -0.5197 
      4 N          26.5356   -5.7350   -0.7243 N.am      1 UNK        -0.4892 
      5 CA         26.8512   -4.3518   -1.0963 C.3       1 UNK         0.0835 
      6 C6         27.9209   -4.2922   -2.2132 C.3       12 UNK        -0.0855 
      7 S7         29.5400   -4.9180   -1.6440 S.3       12 UNK        -0.2931 
      8 C8         30.6743   -4.3371   -2.9609 C.3       12 UNK         0.0378 
      9 C9         30.8250   -2.8193   -3.1089 C.ar      12 UNK        -0.0802 
     10 C10        31.4351   -2.3150   -4.2628 C.ar      12 UNK        -0.0944 
     11 C11        31.5660   -0.9363   -4.4641 C.ar      12 UNK        -0.0787 
     12 C12        31.0654   -0.0504   -3.5070 C.ar      12 UNK        -0.0862 
     13 C13        30.4448   -0.5370   -2.3545 C.ar      12 UNK        -0.0733 
     14 C14        30.3634   -1.9155   -2.1448 C.ar      12 UNK        -0.0832 
     15 C15        29.8234    0.4083   -1.3400 C.3       12 UNK         0.0240 
     16 S16        28.0130    0.2059   -1.3141 S.3       12 UNK        -0.2522 
     17 C17        27.4412    1.5461   -2.4097 C.3       12 UNK        -0.0967 
     18 CA         27.7552    1.3769   -3.9219 C.3       5 UNK         0.0660 
     19 N          27.4719    0.0394   -4.4564 N.am      5 UNK        -0.4015 
     20 C          27.8638   -0.3908   -5.6677 C.2       4 UNK         0.4946 
     21 O          28.5633    0.2693   -6.4354 O.2       4 UNK        -0.5353 
     22 CA         27.3534   -1.7647   -6.1380 C.3       4 UNK         0.0277 
     23 CB         28.3558   -2.8752   -5.8005 C.3       4 UNK        -0.1981 
     24 N          26.0358   -2.1008   -5.5960 N.am      4 UNK        -0.4209 
     25 C          24.9033   -1.4767   -5.9494 C.2       3 UNK         0.4942 
     26 O          24.8474   -0.5851   -6.7952 O.2       3 UNK        -0.5208 
     27 CA         23.6344   -1.8720   -5.1803 C.3       3 UNK         0.0250 
     28 CB         23.0496   -3.1854   -5.7227 C.3       3 UNK        -0.1990 
     29 N          23.8662   -1.9905   -3.7381 N.am      3 UNK        -0.4232 
     30 C          24.2531   -0.9892   -2.9381 C.2       2 UNK         0.4993 
     31 O          24.4798    0.1525   -3.3394 O.2       2 UNK        -0.5286 
     32 CA         24.4547   -1.3172   -1.4502 C.3       2 UNK         0.0209 
     33 CB         23.1320   -1.7265   -0.7709 C.3       2 UNK        -0.1931 
     34 N          25.5262   -2.2916   -1.1923 N.am      2 UNK        -0.4546 
     35 C          25.5786   -3.5905   -1.5241 C.2       1 UNK         0.5154 
     36 O          24.7025   -4.1759   -2.1674 O.2       1 UNK        -0.5181 
     37 C          27.0091    2.4563   -4.7286 C.2       5 UNK         0.5014 
     38 O          27.6081    3.4701   -5.0886 O.2       5 UNK        -0.5248 
     39 N          25.7183    2.2070   -4.9986 N.am      6 UNK        -0.4434 
     40 CA         24.8502    3.0633   -5.8073 C.3       6 UNK         0.0363 
     41 CB         23.3968    2.5766   -5.6911 C.3       6 UNK        -0.1936 
     42 C          25.2886    3.1344   -7.2795 C.2       6 UNK         0.5081 
     43 O          25.2696    4.2203   -7.8601 O.2       6 UNK        -0.5248 
     44 N          25.6826    1.9878   -7.8529 N.am      7 UNK        -0.4718 
     45 CA         26.2093    1.8861   -9.2159 C.3       7 UNK         0.0273 
     46 CB         26.2782    0.4098   -9.6383 C.3       7 UNK        -0.1935 
     47 C          27.5858    2.5502   -9.3770 C.2       7 UNK         0.5018 
     48 O          27.8284    3.1820  -10.4062 O.2       7 UNK        -0.5186 
     49 N          28.4646    2.3726   -8.3779 N.am      8 UNK        -0.4240 
     50 CA         29.8462    2.8610   -8.2530 C.3       8 UNK         0.0235 
     51 CB         29.9109    4.3998   -8.2743 C.3       8 UNK        -0.2000 
     52 C          30.8310    2.2428   -9.2612 C.2       8 UNK         0.4941 
     53 O          31.9078    1.8035   -8.8586 O.2       8 UNK        -0.5273 
     54 N          30.4324    2.1662  -10.5381 N.am      9 UNK        -0.4262 
     55 CA         31.1796    1.6048  -11.6710 C.3       9 UNK         0.0264 
     56 CB         30.3833    1.8622  -12.9611 C.3       9 UNK        -0.1955 
     57 C          31.5338    0.1093  -11.5438 C.2       9 UNK         0.5031 
     58 O          32.3568   -0.3809  -12.3180 O.2       9 UNK        -0.5390 
     59 N          30.9287   -0.5845  -10.5699 N.am      10 UNK        -0.4204 
     60 CA         31.2926   -1.9341  -10.1370 C.3       10 UNK         0.0237 
     61 CB         30.2452   -2.4280   -9.1252 C.3       10 UNK        -0.1985 
     62 C          32.7099   -2.0145   -9.5337 C.2       10 UNK         0.4970 
     63 O          33.3391   -3.0686   -9.6311 O.2       10 UNK        -0.4914 
     64 N          33.1851   -0.9132   -8.9373 N.am      11 UNK        -0.4285 
     65 CA         34.5563   -0.7503   -8.4454 C.3       11 UNK         0.1007 
     66 C          35.4552   -0.1726   -9.5688 C.2       11 UNK         0.5703 
     67 N          36.6577   -0.7054   -9.7387 N.am      11 UNK        -0.7361 
     68 O          35.0915    0.7775  -10.2595 O.2       11 UNK        -0.4986 
     69 C69        34.5907    0.1521   -7.1851 C.3       12 UNK        -0.0947 
     70 S70        34.0213   -0.7228   -5.6921 S.3       12 UNK        -0.2240 
     71 C71        32.2310   -0.4056   -5.7244 C.3       12 UNK         0.0194 
     72 H72        25.9843   -8.1794   -0.2493 H         1 UNK         0.0906 
     73 H73        26.0234   -7.9295    1.4970 H         1 UNK         0.0906 
     74 H74        24.5052   -7.7520    0.6129 H         1 UNK         0.0906 
     75 H75        26.8167   -6.4397   -1.3908 H         1 UNK         0.3140 
     76 H76        27.2530   -3.8562   -0.2091 H         1 UNK         0.1085 
     77 H77        28.0463   -3.2613   -2.5434 H         1 UNK         0.0836 
     78 H78        27.6060   -4.8616   -3.0901 H         1 UNK         0.0836 
     79 H79        30.3383   -4.7600   -3.9091 H         1 UNK         0.0731 
     80 H80        31.6613   -4.7600   -2.7690 H         1 UNK         0.0731 
     81 H81        31.8091   -2.9973   -5.0142 H         1 UNK         0.1312 
     82 H82        31.1455    1.0158   -3.6676 H         1 UNK         0.1406 
     83 H83        29.8954   -2.2706   -1.2381 H         1 UNK         0.1631 
     84 H84        30.0869    1.4468   -1.5461 H         1 UNK         0.0717 
     85 H85        30.2196    0.1794   -0.3497 H         1 UNK         0.0717 
     86 H86        26.3654    1.6332   -2.2471 H         1 UNK         0.0934 
     87 H87        27.8628    2.4854   -2.0465 H         1 UNK         0.0934 
     88 H88        28.8217    1.5574   -4.0616 H         1 UNK         0.0739 
     89 H89        26.8808   -0.5490   -3.8907 H         1 UNK         0.3093 
     90 H90        27.2646   -1.7225   -7.2253 H         1 UNK         0.0818 
     91 H91        28.4962   -2.9742   -4.7276 H         1 UNK         0.0819 
     92 H92        28.0330   -3.8399   -6.1920 H         1 UNK         0.0819 
     93 H93        29.3331   -2.6616   -6.2326 H         1 UNK         0.0819 
     94 H94        25.9881   -2.8321   -4.9021 H         1 UNK         0.3041 
     95 H95        22.8977   -1.0803   -5.3334 H         1 UNK         0.0784 
     96 H96        22.8653   -3.1168   -6.7959 H         1 UNK         0.0793 
     97 H97        23.7221   -4.0285   -5.5591 H         1 UNK         0.0793 
     98 H98        22.0975   -3.4203   -5.2464 H         1 UNK         0.0793 
     99 H99        23.7897   -2.9145   -3.3211 H         1 UNK         0.3024 
    100 H100       24.7805   -0.3883   -0.9779 H         1 UNK         0.1171 
    101 H101       23.2647   -1.8534    0.3036 H         1 UNK         0.0786 
    102 H102       22.3688   -0.9602   -0.9136 H         1 UNK         0.0786 
    103 H103       22.7310   -2.6593   -1.1680 H         1 UNK         0.0786 
    104 H104       26.3227   -1.9043   -0.7033 H         1 UNK         0.2977 
    105 H105       25.2920    1.3730   -4.6010 H         1 UNK         0.3127 
    106 H106       24.9048    4.0735   -5.3960 H         1 UNK         0.0770 
    107 H107       23.2787    1.5606   -6.0691 H         1 UNK         0.0814 
    108 H108       22.7239    3.2179   -6.2618 H         1 UNK         0.0814 
    109 H109       23.0566    2.5880   -4.6554 H         1 UNK         0.0814 
    110 H110       25.5800    1.1200   -7.3324 H         1 UNK         0.2983 
    111 H111       25.5144    2.3998   -9.8839 H         1 UNK         0.0947 
    112 H112       26.6275    0.3135  -10.6673 H         1 UNK         0.0806 
    113 H113       25.2983   -0.0647   -9.5828 H         1 UNK         0.0806 
    114 H114       26.9611   -0.1590   -9.0072 H         1 UNK         0.0806 
    115 H115       28.1854    1.7574   -7.6173 H         1 UNK         0.3000 
    116 H116       30.1736    2.5363   -7.2636 H         1 UNK         0.0850 
    117 H117       30.9258    4.7480   -8.0788 H         1 UNK         0.0810 
    118 H118       29.2662    4.8299   -7.5073 H         1 UNK         0.0810 
    119 H119       29.6071    4.8112   -9.2372 H         1 UNK         0.0810 
    120 H120       29.5152    2.5581  -10.7453 H         1 UNK         0.3040 
    121 H121       32.1253    2.1467  -11.7349 H         1 UNK         0.0766 
    122 H122       30.9211    1.4927  -13.8355 H         1 UNK         0.0812 
    123 H123       30.2115    2.9276  -13.1159 H         1 UNK         0.0812 
    124 H124       29.4125    1.3652  -12.9401 H         1 UNK         0.0812 
    125 H125       30.2580   -0.0917   -9.9997 H         1 UNK         0.3205 
    126 H126       31.2683   -2.5882  -11.0110 H         1 UNK         0.0754 
    127 H127       30.1753   -1.7621   -8.2645 H         1 UNK         0.0769 
    128 H128       30.4957   -3.4223   -8.7525 H         1 UNK         0.0769 
    129 H129       29.2555   -2.4927   -9.5779 H         1 UNK         0.0769 
    130 H130       32.6349   -0.0601   -8.9546 H         1 UNK         0.2981 
    131 H131       34.9551   -1.7286   -8.1686 H         1 UNK         0.0541 
    132 H132       36.9727   -1.4759   -9.1697 H         1 UNK         0.3459 
    133 H133       37.2616   -0.3318  -10.4544 H         1 UNK         0.3459 
    134 H134       34.0105    1.0648   -7.3298 H         1 UNK         0.0612 
    135 H135       35.6120    0.4769   -6.9766 H         1 UNK         0.0612 
    136 H136       31.7847   -0.8888   -6.5931 H         1 UNK         0.0624 
    137 H137       32.0515    0.6648   -5.8378 H         1 UNK         0.0624 
@<TRIPOS>BOND
     1    1    2 1    
     2    1   72 1    
     3    1   73 1    
     4    1   74 1    
     5    2    3 2    
     6    2    4 am   BACKBONE|DICT|INTERRES
     7    4    5 1    
     8    4   75 1    
     9    5    6 1    
    10    5   35 1    
    11    5   76 1    
    12    6    7 1    
    13    6   77 1    
    14    6   78 1    
    15    7    8 1    
    16    8    9 1    
    17    8   79 1    
    18    8   80 1    
    19    9   10 ar   
    20    9   14 ar   
    21   10   11 ar   
    22   10   81 1    
    23   11   12 ar   
    24   11   71 1    
    25   12   13 ar   
    26   12   82 1    
    27   13   14 ar   
    28   13   15 1    
    29   14   83 1    
    30   15   16 1    
    31   15   84 1    
    32   15   85 1    
    33   16   17 1    
    34   17   18 1    
    35   17   86 1    
    36   17   87 1    
    37   18   19 1    
    38   18   37 1    
    39   18   88 1    
    40   19   20 am   BACKBONE|DICT|INTERRES
    41   19   89 1    
    42   20   21 2    
    43   20   22 1    
    44   22   23 1    
    45   22   24 1    
    46   22   90 1    
    47   23   91 1    
    48   23   92 1    
    49   23   93 1    
    50   24   25 am   BACKBONE|DICT|INTERRES
    51   24   94 1    
    52   25   26 2    
    53   25   27 1    
    54   27   28 1    
    55   27   29 1    
    56   27   95 1    
    57   28   96 1    
    58   28   97 1    
    59   28   98 1    
    60   29   30 am   BACKBONE|DICT|INTERRES
    61   29   99 1    
    62   30   31 2    
    63   30   32 1    
    64   32   33 1    
    65   32   34 1    
    66   32  100 1    
    67   33  101 1    
    68   33  102 1    
    69   33  103 1    
    70   34   35 am   BACKBONE|DICT|INTERRES
    71   34  104 1    
    72   35   36 2    
    73   37   38 2    
    74   37   39 am   BACKBONE|DICT|INTERRES
    75   39   40 1    
    76   39  105 1    
    77   40   41 1    
    78   40   42 1    
    79   40  106 1    
    80   41  107 1    
    81   41  108 1    
    82   41  109 1    
    83   42   43 2    
    84   42   44 am   BACKBONE|DICT|INTERRES
    85   44   45 1    
    86   44  110 1    
    87   45   46 1    
    88   45   47 1    
    89   45  111 1    
    90   46  112 1    
    91   46  113 1    
    92   46  114 1    
    93   47   48 2    
    94   47   49 am   BACKBONE|DICT|INTERRES
    95   49   50 1    
    96   49  115 1    
    97   50   51 1    
    98   50   52 1    
    99   50  116 1    
   100   51  117 1    
   101   51  118 1    
   102   51  119 1    
   103   52   53 2    
   104   52   54 am   BACKBONE|DICT|INTERRES
   105   54   55 1    
   106   54  120 1    
   107   55   56 1    
   108   55   57 1    
   109   55  121 1    
   110   56  122 1    
   111   56  123 1    
   112   56  124 1    
   113   57   58 2    
   114   57   59 am   BACKBONE|DICT|INTERRES
   115   59   60 1    
   116   59  125 1    
   117   60   61 1    
   118   60   62 1    
   119   60  126 1    
   120   61  127 1    
   121   61  128 1    
   122   61  129 1    
   123   62   63 2    
   124   62   64 am   BACKBONE|DICT|INTERRES
   125   64   65 1    
   126   64  130 1    
   127   65   66 1    
   128   65   69 1    
   129   65  131 1    
   130   66   67 am   BACKBONE|DICT|INTERRES
   131   66   68 2    
   132   67  132 1    
   133   67  133 1    
   134   69   70 1    
   135   69  134 1    
   136   69  135 1    
   137   70   71 1    
   138   71  136 1    
   139   71  137 1    
@<TRIPOS>SUBSTRUCTURE
     1 UNK         1 GROUP             0       ****    0 ROOT    
