@<TRIPOS>MOLECULE
3R137
137   139    1
SMALL
USER_CHARGES


@<TRIPOS>ATOM
      1 CA         25.2478    1.6903    2.3580 C.3       0 UNK        -0.2020 
      2 C          25.6175    0.3277    1.7909 C.2       0 UNK         0.4855 
      3 O          25.4064   -0.6853    2.4574 O.2       0 UNK        -0.5197 
      4 N          26.1664    0.3021    0.5673 N.am      1 UNK        -0.4892 
      5 CA         26.5832   -0.8986   -0.1724 C.3       1 UNK         0.0835 
      6 C6         27.7848   -1.6239    0.4975 C.3       12 UNK        -0.0855 
      7 S7         28.7338   -2.6771   -0.6523 S.3       12 UNK        -0.2931 
      8 C8         29.8208   -1.4668   -1.4834 C.3       12 UNK         0.0378 
      9 C9         30.6619   -2.0834   -2.6010 C.ar      12 UNK        -0.0802 
     10 C10        31.9798   -1.6561   -2.7958 C.ar      12 UNK        -0.0944 
     11 C11        32.7767   -2.2223   -3.7973 C.ar      12 UNK        -0.0787 
     12 C12        32.2447   -3.2278   -4.6112 C.ar      12 UNK        -0.0862 
     13 C13        30.9222   -3.6507   -4.4451 C.ar      12 UNK        -0.0733 
     14 C14        30.1367   -3.0678   -3.4470 C.ar      12 UNK        -0.0832 
     15 C15        30.3562   -4.7790   -5.2983 C.3       12 UNK         0.0240 
     16 S16        28.8549   -4.2968   -6.2117 S.3       12 UNK        -0.2522 
     17 C17        29.5445   -3.2538   -7.5416 C.3       12 UNK        -0.0967 
     18 CA         28.8483   -1.8778   -7.6795 C.3       5 UNK         0.0660 
     19 N          27.3995   -2.0005   -7.8468 N.am      5 UNK        -0.4015 
     20 C          26.5935   -1.0241   -8.2797 C.2       4 UNK         0.4946 
     21 O          26.9985    0.0881   -8.6202 O.2       4 UNK        -0.5353 
     22 CA         25.0830   -1.3139   -8.2646 C.3       4 UNK         0.0277 
     23 CB         24.6393   -1.8979   -9.6149 C.3       4 UNK        -0.1981 
     24 N          24.6594   -2.2042   -7.1724 N.am      4 UNK        -0.4209 
     25 C          24.8269   -1.9371   -5.8692 C.2       3 UNK         0.4942 
     26 O          25.3908   -0.9249   -5.4472 O.2       3 UNK        -0.5208 
     27 CA         24.3280   -2.9840   -4.8691 C.3       3 UNK         0.0250 
     28 CB         25.3877   -4.0792   -4.6505 C.3       3 UNK        -0.1990 
     29 N          24.0534   -2.3031   -3.6072 N.am      3 UNK        -0.4232 
     30 C          23.1901   -2.7024   -2.6665 C.2       2 UNK         0.4993 
     31 O          22.5324   -3.7423   -2.7428 O.2       2 UNK        -0.5286 
     32 CA         23.0275   -1.7693   -1.4474 C.3       2 UNK         0.0209 
     33 CB         22.2883   -2.4371   -0.2669 C.3       2 UNK        -0.1931 
     34 N          24.2943   -1.1679   -1.0016 N.am      2 UNK        -0.4546 
     35 C          25.3800   -1.8067   -0.5320 C.2       1 UNK         0.5154 
     36 O          25.4435   -3.0276   -0.3791 O.2       1 UNK        -0.5181 
     37 C          29.2793   -0.8789   -6.5822 C.2       5 UNK         0.5014 
     38 O          30.4604   -0.5442   -6.5284 O.2       5 UNK        -0.5248 
     39 N          28.3482   -0.3867   -5.7516 N.am      6 UNK        -0.4434 
     40 CA         28.6245    0.6321   -4.7402 C.3       6 UNK         0.0363 
     41 CB         27.4710    0.6601   -3.7272 C.3       6 UNK        -0.1936 
     42 C          28.8423    2.0399   -5.3234 C.2       6 UNK         0.5081 
     43 O          29.4908    2.8509   -4.6612 O.2       6 UNK        -0.5248 
     44 N          28.2912    2.3306   -6.5133 N.am      7 UNK        -0.4718 
     45 CA         28.3479    3.6672   -7.1149 C.3       7 UNK         0.0273 
     46 CB         27.3256    4.6102   -6.4492 C.3       7 UNK        -0.1935 
     47 C          28.1578    3.6456   -8.6345 C.2       7 UNK         0.5018 
     48 O          28.9971    4.1946   -9.3482 O.2       7 UNK        -0.5186 
     49 N          27.0648    3.0302   -9.1095 N.am      8 UNK        -0.4240 
     50 CA         26.6851    2.9848  -10.5290 C.3       8 UNK         0.0235 
     51 CB         25.2947    2.3441  -10.6736 C.3       8 UNK        -0.2000 
     52 C          27.7129    2.2648  -11.4194 C.2       8 UNK         0.4941 
     53 O          27.9501    2.6996  -12.5470 O.2       8 UNK        -0.5273 
     54 N          28.3234    1.2069  -10.8777 N.am      9 UNK        -0.4262 
     55 CA         29.4327    0.4652  -11.4706 C.3       9 UNK         0.0264 
     56 CB         28.9185   -0.9071  -11.9481 C.3       9 UNK        -0.1955 
     57 C          30.5701    0.3573  -10.4421 C.2       9 UNK         0.5031 
     58 O          31.0478   -0.7502  -10.1949 O.2       9 UNK        -0.5390 
     59 N          30.9369    1.5051   -9.8442 N.am      10 UNK        -0.4204 
     60 CA         31.8596    1.7203   -8.7156 C.3       10 UNK         0.0237 
     61 CB         32.3547    3.1780   -8.7475 C.3       10 UNK        -0.1985 
     62 C          33.0465    0.7397   -8.6197 C.2       10 UNK         0.4970 
     63 O          34.0836    0.9610   -9.2487 O.2       10 UNK        -0.4914 
     64 N          32.8420   -0.3248   -7.8374 N.am      11 UNK        -0.4285 
     65 CA         33.7569   -1.4425   -7.5723 C.3       11 UNK         0.1007 
     66 C          34.2053   -2.2505   -8.8283 C.2       11 UNK         0.5703 
     67 N          33.4563   -2.2342   -9.9238 N.am      11 UNK        -0.7361 
     68 O          35.2267   -2.9339   -8.8040 O.2       11 UNK        -0.4986 
     69 C69        34.9285   -1.0516   -6.6295 C.3       12 UNK        -0.0947 
     70 S70        34.3697   -0.3177   -5.0506 S.3       12 UNK        -0.2240 
     71 C71        34.2235   -1.7732   -3.9626 C.3       12 UNK         0.0194 
     72 H72        25.7825    1.8654    3.2912 H         1 UNK         0.0906 
     73 H73        25.4919    2.5004    1.6711 H         1 UNK         0.0906 
     74 H74        24.1788    1.7324    2.5652 H         1 UNK         0.0906 
     75 H75        26.3124    1.1788    0.0846 H         1 UNK         0.3140 
     76 H76        26.9388   -0.5179   -1.1272 H         1 UNK         0.1085 
     77 H77        27.4460   -2.2348    1.3363 H         1 UNK         0.0836 
     78 H78        28.4735   -0.8935    0.9252 H         1 UNK         0.0836 
     79 H79        29.2209   -0.6614   -1.9032 H         1 UNK         0.0731 
     80 H80        30.4679   -1.0133   -0.7308 H         1 UNK         0.0731 
     81 H81        32.3948   -0.8869   -2.1586 H         1 UNK         0.1312 
     82 H82        32.8664   -3.6926   -5.3632 H         1 UNK         0.1406 
     83 H83        29.1161   -3.4016   -3.3200 H         1 UNK         0.1631 
     84 H84        30.1084   -5.6158   -4.6439 H         1 UNK         0.0717 
     85 H85        31.1004   -5.1540   -6.0027 H         1 UNK         0.0717 
     86 H86        30.6204   -3.1269   -7.4047 H         1 UNK         0.0934 
     87 H87        29.4399   -3.8043   -8.4778 H         1 UNK         0.0934 
     88 H88        29.2124   -1.4443   -8.6088 H         1 UNK         0.0739 
     89 H89        26.9942   -2.8788   -7.5580 H         1 UNK         0.3093 
     90 H90        24.5757   -0.3572   -8.1231 H         1 UNK         0.0818 
     91 H91        23.5554   -2.0031   -9.6652 H         1 UNK         0.0819 
     92 H92        24.9373   -1.2480  -10.4391 H         1 UNK         0.0819 
     93 H93        25.0817   -2.8780   -9.7981 H         1 UNK         0.0819 
     94 H94        24.1930   -3.0600   -7.4392 H         1 UNK         0.3041 
     95 H95        23.4064   -3.4265   -5.2534 H         1 UNK         0.0784 
     96 H96        25.6154   -4.6012   -5.5805 H         1 UNK         0.0793 
     97 H97        26.3223   -3.6637   -4.2702 H         1 UNK         0.0793 
     98 H98        25.0431   -4.8276   -3.9367 H         1 UNK         0.0793 
     99 H99        24.5272   -1.4134   -3.5120 H         1 UNK         0.3024 
    100 H100       22.4020   -0.9442   -1.7926 H         1 UNK         0.1171 
    101 H101       21.2870   -2.7540   -0.5614 H         1 UNK         0.0786 
    102 H102       22.1757   -1.7490    0.5710 H         1 UNK         0.0786 
    103 H103       22.8143   -3.3213    0.0942 H         1 UNK         0.0786 
    104 H104       24.3413   -0.1601   -1.0647 H         1 UNK         0.2977 
    105 H105       27.3824   -0.6867   -5.8377 H         1 UNK         0.3127 
    106 H106       29.5372    0.3447   -4.2131 H         1 UNK         0.0770 
    107 H107       26.5641    1.0832   -4.1613 H         1 UNK         0.0814 
    108 H108       27.7297    1.2685   -2.8598 H         1 UNK         0.0814 
    109 H109       27.2342   -0.3437   -3.3771 H         1 UNK         0.0814 
    110 H110       27.8199    1.6003   -7.0338 H         1 UNK         0.2983 
    111 H111       29.3458    4.0777   -6.9414 H         1 UNK         0.0947 
    112 H112       27.3268    5.5907   -6.9276 H         1 UNK         0.0806 
    113 H113       27.5567    4.7694   -5.3959 H         1 UNK         0.0806 
    114 H114       26.3106    4.2165   -6.5111 H         1 UNK         0.0806 
    115 H115       26.4406    2.5697   -8.4633 H         1 UNK         0.3000 
    116 H116       26.6201    4.0166  -10.8809 H         1 UNK         0.0850 
    117 H117       24.9804    2.3280  -11.7181 H         1 UNK         0.0810 
    118 H118       24.5403    2.9015  -10.1184 H         1 UNK         0.0810 
    119 H119       25.2831    1.3146  -10.3156 H         1 UNK         0.0810 
    120 H120       28.0075    0.8957   -9.9600 H         1 UNK         0.3040 
    121 H121       29.8379    1.0007  -12.3317 H         1 UNK         0.0766 
    122 H122       29.7181   -1.4864  -12.4115 H         1 UNK         0.0812 
    123 H123       28.1277   -0.7957  -12.6899 H         1 UNK         0.0812 
    124 H124       28.5208   -1.4976  -11.1217 H         1 UNK         0.0812 
    125 H125       30.4495    2.3378  -10.1481 H         1 UNK         0.3205 
    126 H126       31.2657    1.6102   -7.8070 H         1 UNK         0.0754 
    127 H127       33.0608    3.3694   -7.9381 H         1 UNK         0.0769 
    128 H128       31.5341    3.8840   -8.6265 H         1 UNK         0.0769 
    129 H129       32.8620    3.4102   -9.6848 H         1 UNK         0.0769 
    130 H130       31.9384   -0.4041   -7.3684 H         1 UNK         0.2981 
    131 H131       33.1437   -2.1563   -7.0273 H         1 UNK         0.0541 
    132 H132       32.6011   -1.6808   -9.9597 H         1 UNK         0.3459 
    133 H133       33.7442   -2.7666  -10.7283 H         1 UNK         0.3459 
    134 H134       35.5783   -0.3289   -7.1254 H         1 UNK         0.0612 
    135 H135       35.5575   -1.9150   -6.4083 H         1 UNK         0.0612 
    136 H136       34.8376   -2.5946   -4.3334 H         1 UNK         0.0624 
    137 H137       34.6354   -1.5131   -2.9864 H         1 UNK         0.0624 
@<TRIPOS>BOND
     1    1    2 1    
     2    1   72 1    
     3    1   73 1    
     4    1   74 1    
     5    2    3 2    
     6    2    4 am   BACKBONE|DICT|INTERRES
     7    4    5 1    
     8    4   75 1    
     9    5    6 1    
    10    5   35 1    
    11    5   76 1    
    12    6    7 1    
    13    6   77 1    
    14    6   78 1    
    15    7    8 1    
    16    8    9 1    
    17    8   79 1    
    18    8   80 1    
    19    9   10 ar   
    20    9   14 ar   
    21   10   11 ar   
    22   10   81 1    
    23   11   12 ar   
    24   11   71 1    
    25   12   13 ar   
    26   12   82 1    
    27   13   14 ar   
    28   13   15 1    
    29   14   83 1    
    30   15   16 1    
    31   15   84 1    
    32   15   85 1    
    33   16   17 1    
    34   17   18 1    
    35   17   86 1    
    36   17   87 1    
    37   18   19 1    
    38   18   37 1    
    39   18   88 1    
    40   19   20 am   BACKBONE|DICT|INTERRES
    41   19   89 1    
    42   20   21 2    
    43   20   22 1    
    44   22   23 1    
    45   22   24 1    
    46   22   90 1    
    47   23   91 1    
    48   23   92 1    
    49   23   93 1    
    50   24   25 am   BACKBONE|DICT|INTERRES
    51   24   94 1    
    52   25   26 2    
    53   25   27 1    
    54   27   28 1    
    55   27   29 1    
    56   27   95 1    
    57   28   96 1    
    58   28   97 1    
    59   28   98 1    
    60   29   30 am   BACKBONE|DICT|INTERRES
    61   29   99 1    
    62   30   31 2    
    63   30   32 1    
    64   32   33 1    
    65   32   34 1    
    66   32  100 1    
    67   33  101 1    
    68   33  102 1    
    69   33  103 1    
    70   34   35 am   BACKBONE|DICT|INTERRES
    71   34  104 1    
    72   35   36 2    
    73   37   38 2    
    74   37   39 am   BACKBONE|DICT|INTERRES
    75   39   40 1    
    76   39  105 1    
    77   40   41 1    
    78   40   42 1    
    79   40  106 1    
    80   41  107 1    
    81   41  108 1    
    82   41  109 1    
    83   42   43 2    
    84   42   44 am   BACKBONE|DICT|INTERRES
    85   44   45 1    
    86   44  110 1    
    87   45   46 1    
    88   45   47 1    
    89   45  111 1    
    90   46  112 1    
    91   46  113 1    
    92   46  114 1    
    93   47   48 2    
    94   47   49 am   BACKBONE|DICT|INTERRES
    95   49   50 1    
    96   49  115 1    
    97   50   51 1    
    98   50   52 1    
    99   50  116 1    
   100   51  117 1    
   101   51  118 1    
   102   51  119 1    
   103   52   53 2    
   104   52   54 am   BACKBONE|DICT|INTERRES
   105   54   55 1    
   106   54  120 1    
   107   55   56 1    
   108   55   57 1    
   109   55  121 1    
   110   56  122 1    
   111   56  123 1    
   112   56  124 1    
   113   57   58 2    
   114   57   59 am   BACKBONE|DICT|INTERRES
   115   59   60 1    
   116   59  125 1    
   117   60   61 1    
   118   60   62 1    
   119   60  126 1    
   120   61  127 1    
   121   61  128 1    
   122   61  129 1    
   123   62   63 2    
   124   62   64 am   BACKBONE|DICT|INTERRES
   125   64   65 1    
   126   64  130 1    
   127   65   66 1    
   128   65   69 1    
   129   65  131 1    
   130   66   67 am   BACKBONE|DICT|INTERRES
   131   66   68 2    
   132   67  132 1    
   133   67  133 1    
   134   69   70 1    
   135   69  134 1    
   136   69  135 1    
   137   70   71 1    
   138   71  136 1    
   139   71  137 1    
@<TRIPOS>SUBSTRUCTURE
     1 UNK         1 GROUP             0       ****    0 ROOT    
