@<TRIPOS>MOLECULE
3R137
137   139    1
SMALL
USER_CHARGES


@<TRIPOS>ATOM
      1 CA         22.6926   -4.5429   -3.1396 C.3       0 UNK        -0.2020 
      2 C          23.9203   -4.0807   -2.3696 C.2       0 UNK         0.4855 
      3 O          23.7934   -3.2948   -1.4303 O.2       0 UNK        -0.5197 
      4 N          25.1065   -4.5704   -2.7540 N.am      1 UNK        -0.4892 
      5 CA         26.3898   -4.2395   -2.1250 C.3       1 UNK         0.0835 
      6 C6         27.4981   -5.2337   -2.5598 C.3       12 UNK        -0.0855 
      7 S7         28.8589   -5.3348   -1.3435 S.3       12 UNK        -0.2931 
      8 C8         30.3312   -5.5368   -2.4023 C.3       12 UNK         0.0378 
      9 C9         30.6190   -4.2939   -3.2327 C.ar      12 UNK        -0.0802 
     10 C10        31.0906   -3.1307   -2.6195 C.ar      12 UNK        -0.0944 
     11 C11        31.3158   -1.9695   -3.3657 C.ar      12 UNK        -0.0787 
     12 C12        31.0520   -1.9804   -4.7411 C.ar      12 UNK        -0.0862 
     13 C13        30.6123   -3.1494   -5.3746 C.ar      12 UNK        -0.0733 
     14 C14        30.4122   -4.3058   -4.6137 C.ar      12 UNK        -0.0832 
     15 C15        30.3424   -3.1513   -6.8782 C.3       12 UNK         0.0240 
     16 S16        28.7719   -3.9544   -7.3578 S.3       12 UNK        -0.2522 
     17 C17        27.5670   -3.1216   -6.2711 C.3       12 UNK        -0.0967 
     18 CA         26.8327   -1.9391   -6.9401 C.3       5 UNK         0.0660 
     19 N          25.6310   -1.5706   -6.1916 N.am      5 UNK        -0.4015 
     20 C          24.6117   -0.8691   -6.7071 C.2       4 UNK         0.4946 
     21 O          24.5489   -0.5141   -7.8841 O.2       4 UNK        -0.5353 
     22 CA         23.4764   -0.4802   -5.7459 C.3       4 UNK         0.0277 
     23 CB         22.4703   -1.6336   -5.6126 C.3       4 UNK        -0.1981 
     24 N          23.9490   -0.0802   -4.4167 N.am      4 UNK        -0.4209 
     25 C          24.6938    1.0087   -4.1743 C.2       3 UNK         0.4942 
     26 O          25.1031    1.7695   -5.0499 O.2       3 UNK        -0.5208 
     27 CA         25.1043    1.2479   -2.7200 C.3       3 UNK         0.0250 
     28 CB         23.9143    1.2169   -1.7420 C.3       3 UNK        -0.1990 
     29 N          26.0829    0.2285   -2.3728 N.am      3 UNK        -0.4232 
     30 C          27.1244    0.3622   -1.5523 C.2       2 UNK         0.4993 
     31 O          27.3337    1.3748   -0.8823 O.2       2 UNK        -0.5286 
     32 CA         28.1118   -0.8271   -1.4950 C.3       2 UNK         0.0209 
     33 CB         29.1013   -0.7033   -0.3205 C.3       2 UNK        -0.1931 
     34 N          27.4971   -2.1609   -1.4433 N.am      2 UNK        -0.4546 
     35 C          26.7908   -2.7751   -2.4028 C.2       1 UNK         0.5154 
     36 O          26.4635   -2.2372   -3.4677 O.2       1 UNK        -0.5181 
     37 C          27.7518   -0.7169   -7.1220 C.2       5 UNK         0.5014 
     38 O          28.2419   -0.4924   -8.2273 O.2       5 UNK        -0.5248 
     39 N          27.9342    0.0765   -6.0542 N.am      6 UNK        -0.4434 
     40 CA         28.7607    1.2914   -6.0379 C.3       6 UNK         0.0363 
     41 CB         28.8172    1.8513   -4.6084 C.3       6 UNK        -0.1936 
     42 C          28.2976    2.3802   -7.0248 C.2       6 UNK         0.5081 
     43 O          29.1166    3.1701   -7.4910 O.2       6 UNK        -0.5248 
     44 N          27.0011    2.3913   -7.3548 N.am      7 UNK        -0.4718 
     45 CA         26.4214    3.2327   -8.4010 C.3       7 UNK         0.0273 
     46 CB         24.8930    3.2429   -8.2314 C.3       7 UNK        -0.1935 
     47 C          26.8012    2.8006   -9.8331 C.2       7 UNK         0.5018 
     48 O          26.5890    3.5900  -10.7552 O.2       7 UNK        -0.5186 
     49 N          27.3160    1.5742  -10.0109 N.am      8 UNK        -0.4240 
     50 CA         27.5813    0.9635  -11.3140 C.3       8 UNK         0.0235 
     51 CB         26.7159   -0.3008  -11.4540 C.3       8 UNK        -0.2000 
     52 C          29.0608    0.6153  -11.5396 C.2       8 UNK         0.4941 
     53 O          29.5332    0.7830  -12.6655 O.2       8 UNK        -0.5273 
     54 N          29.7616    0.1049  -10.5175 N.am      9 UNK        -0.4262 
     55 CA         31.0951   -0.4859  -10.6573 C.3       9 UNK         0.0264 
     56 CB         30.9370   -1.9661  -11.0632 C.3       9 UNK        -0.1955 
     57 C          31.9151   -0.3626   -9.3659 C.2       9 UNK         0.5031 
     58 O          31.3829    0.0422   -8.3298 O.2       9 UNK        -0.5390 
     59 N          33.1985   -0.7472   -9.4644 N.am      10 UNK        -0.4204 
     60 CA         34.2048   -0.8674   -8.4004 C.3       10 UNK         0.0237 
     61 CB         33.9182   -2.1077   -7.5259 C.3       10 UNK        -0.1985 
     62 C          34.3678    0.4259   -7.5842 C.2       10 UNK         0.4970 
     63 O          35.1231    1.3078   -7.9951 O.2       10 UNK        -0.4914 
     64 N          33.6476    0.5101   -6.4604 N.am      11 UNK        -0.4285 
     65 CA         33.5188    1.6952   -5.6032 C.3       11 UNK         0.1007 
     66 C          32.8995    2.9341   -6.3127 C.2       11 UNK         0.5703 
     67 N          32.1274    2.7581   -7.3772 N.am      11 UNK        -0.7361 
     68 O          33.1194    4.0636   -5.8820 O.2       11 UNK        -0.4986 
     69 C69        32.7072    1.3769   -4.3211 C.3       12 UNK        -0.0947 
     70 S70        33.3491   -0.0411   -3.3689 S.3       12 UNK        -0.2240 
     71 C71        31.8083   -0.7091   -2.6601 C.3       12 UNK         0.0194 
     72 H72        22.9546   -4.9410   -4.1197 H         1 UNK         0.0906 
     73 H73        22.1737   -5.3214   -2.5811 H         1 UNK         0.0906 
     74 H74        22.0004   -3.7140   -3.2837 H         1 UNK         0.0906 
     75 H75        25.1520   -5.1925   -3.5482 H         1 UNK         0.3140 
     76 H76        26.2376   -4.3449   -1.0480 H         1 UNK         0.1085 
     77 H77        27.0858   -6.2407   -2.6429 H         1 UNK         0.0836 
     78 H78        27.8777   -4.9883   -3.5530 H         1 UNK         0.0836 
     79 H79        30.1973   -6.4121   -3.0400 H         1 UNK         0.0731 
     80 H80        31.1936   -5.7502   -1.7692 H         1 UNK         0.0731 
     81 H81        31.2649   -3.1309   -1.5523 H         1 UNK         0.1312 
     82 H82        31.1943   -1.0799   -5.3210 H         1 UNK         0.1406 
     83 H83        30.0646   -5.2092   -5.0962 H         1 UNK         0.1631 
     84 H84        31.1601   -3.6673   -7.3822 H         1 UNK         0.0717 
     85 H85        30.3373   -2.1329   -7.2658 H         1 UNK         0.0717 
     86 H86        26.8408   -3.8821   -5.9796 H         1 UNK         0.0934 
     87 H87        28.0427   -2.8098   -5.3427 H         1 UNK         0.0934 
     88 H88        26.5158   -2.2620   -7.9347 H         1 UNK         0.0739 
     89 H89        25.6231   -1.8240   -5.2085 H         1 UNK         0.3093 
     90 H90        22.9565    0.3763   -6.1812 H         1 UNK         0.0818 
     91 H91        21.6389   -1.3674   -4.9597 H         1 UNK         0.0819 
     92 H92        22.0472   -1.8930   -6.5842 H         1 UNK         0.0819 
     93 H93        22.9412   -2.5323   -5.2154 H         1 UNK         0.0819 
     94 H94        23.6630   -0.6562   -3.6381 H         1 UNK         0.3041 
     95 H95        25.5717    2.2340   -2.6702 H         1 UNK         0.0784 
     96 H96        23.1323    1.9102   -2.0544 H         1 UNK         0.0793 
     97 H97        23.4675    0.2251   -1.6645 H         1 UNK         0.0793 
     98 H98        24.2272    1.5136   -0.7406 H         1 UNK         0.0793 
     99 H99        26.0214   -0.6525   -2.8815 H         1 UNK         0.3024 
    100 H100       28.6892   -0.7842   -2.4201 H         1 UNK         0.1171 
    101 H101       29.8215   -1.5210   -0.3156 H         1 UNK         0.0786 
    102 H102       29.6714    0.2249   -0.3802 H         1 UNK         0.0786 
    103 H103       28.5848   -0.7076    0.6401 H         1 UNK         0.0786 
    104 H104       27.6982   -2.6922   -0.6081 H         1 UNK         0.2977 
    105 H105       27.4683   -0.1669   -5.1939 H         1 UNK         0.3127 
    106 H106       29.7706    1.0006   -6.3338 H         1 UNK         0.0770 
    107 H107       27.8310    2.1529   -4.2538 H         1 UNK         0.0814 
    108 H108       29.4615    2.7305   -4.5620 H         1 UNK         0.0814 
    109 H109       29.2199    1.1206   -3.9091 H         1 UNK         0.0814 
    110 H110       26.3695    1.7712   -6.8618 H         1 UNK         0.2983 
    111 H111       26.7882    4.2521   -8.2627 H         1 UNK         0.0947 
    112 H112       24.4203    3.8939   -8.9681 H         1 UNK         0.0806 
    113 H113       24.6056    3.6079   -7.2451 H         1 UNK         0.0806 
    114 H114       24.4685    2.2459   -8.3555 H         1 UNK         0.0806 
    115 H115       27.5032    0.9928   -9.1989 H         1 UNK         0.3000 
    116 H116       27.2947    1.6468  -12.1162 H         1 UNK         0.0850 
    117 H117       26.8783   -0.7826  -12.4192 H         1 UNK         0.0810 
    118 H118       25.6543   -0.0628  -11.3843 H         1 UNK         0.0810 
    119 H119       26.9439   -1.0343  -10.6793 H         1 UNK         0.0810 
    120 H120       29.3314   -0.0040   -9.5984 H         1 UNK         0.3040 
    121 H121       31.6472    0.0454  -11.4355 H         1 UNK         0.0766 
    122 H122       30.3977   -2.5311  -10.3011 H         1 UNK         0.0812 
    123 H123       31.9018   -2.4525  -11.2090 H         1 UNK         0.0812 
    124 H124       30.3881   -2.0650  -11.9999 H         1 UNK         0.0812 
    125 H125       33.5289   -1.0111  -10.3823 H         1 UNK         0.3205 
    126 H126       35.1612   -1.0363   -8.8981 H         1 UNK         0.0754 
    127 H127       33.9407   -3.0206   -8.1212 H         1 UNK         0.0769 
    128 H128       32.9440   -2.0555   -7.0440 H         1 UNK         0.0769 
    129 H129       34.6678   -2.2176   -6.7408 H         1 UNK         0.0769 
    130 H130       33.0447   -0.2634   -6.2308 H         1 UNK         0.2981 
    131 H131       34.5287    1.9789   -5.3019 H         1 UNK         0.0541 
    132 H132       31.9067    1.8217   -7.7014 H         1 UNK         0.3459 
    133 H133       31.6784    3.5523   -7.8041 H         1 UNK         0.3459 
    134 H134       31.6682    1.1816   -4.5884 H         1 UNK         0.0612 
    135 H135       32.6927    2.2408   -3.6539 H         1 UNK         0.0612 
    136 H136       32.0019   -0.9188   -1.6072 H         1 UNK         0.0624 
    137 H137       31.0244    0.0475   -2.6708 H         1 UNK         0.0624 
@<TRIPOS>BOND
     1    1    2 1    
     2    1   72 1    
     3    1   73 1    
     4    1   74 1    
     5    2    3 2    
     6    2    4 am   BACKBONE|DICT|INTERRES
     7    4    5 1    
     8    4   75 1    
     9    5    6 1    
    10    5   35 1    
    11    5   76 1    
    12    6    7 1    
    13    6   77 1    
    14    6   78 1    
    15    7    8 1    
    16    8    9 1    
    17    8   79 1    
    18    8   80 1    
    19    9   10 ar   
    20    9   14 ar   
    21   10   11 ar   
    22   10   81 1    
    23   11   12 ar   
    24   11   71 1    
    25   12   13 ar   
    26   12   82 1    
    27   13   14 ar   
    28   13   15 1    
    29   14   83 1    
    30   15   16 1    
    31   15   84 1    
    32   15   85 1    
    33   16   17 1    
    34   17   18 1    
    35   17   86 1    
    36   17   87 1    
    37   18   19 1    
    38   18   37 1    
    39   18   88 1    
    40   19   20 am   BACKBONE|DICT|INTERRES
    41   19   89 1    
    42   20   21 2    
    43   20   22 1    
    44   22   23 1    
    45   22   24 1    
    46   22   90 1    
    47   23   91 1    
    48   23   92 1    
    49   23   93 1    
    50   24   25 am   BACKBONE|DICT|INTERRES
    51   24   94 1    
    52   25   26 2    
    53   25   27 1    
    54   27   28 1    
    55   27   29 1    
    56   27   95 1    
    57   28   96 1    
    58   28   97 1    
    59   28   98 1    
    60   29   30 am   BACKBONE|DICT|INTERRES
    61   29   99 1    
    62   30   31 2    
    63   30   32 1    
    64   32   33 1    
    65   32   34 1    
    66   32  100 1    
    67   33  101 1    
    68   33  102 1    
    69   33  103 1    
    70   34   35 am   BACKBONE|DICT|INTERRES
    71   34  104 1    
    72   35   36 2    
    73   37   38 2    
    74   37   39 am   BACKBONE|DICT|INTERRES
    75   39   40 1    
    76   39  105 1    
    77   40   41 1    
    78   40   42 1    
    79   40  106 1    
    80   41  107 1    
    81   41  108 1    
    82   41  109 1    
    83   42   43 2    
    84   42   44 am   BACKBONE|DICT|INTERRES
    85   44   45 1    
    86   44  110 1    
    87   45   46 1    
    88   45   47 1    
    89   45  111 1    
    90   46  112 1    
    91   46  113 1    
    92   46  114 1    
    93   47   48 2    
    94   47   49 am   BACKBONE|DICT|INTERRES
    95   49   50 1    
    96   49  115 1    
    97   50   51 1    
    98   50   52 1    
    99   50  116 1    
   100   51  117 1    
   101   51  118 1    
   102   51  119 1    
   103   52   53 2    
   104   52   54 am   BACKBONE|DICT|INTERRES
   105   54   55 1    
   106   54  120 1    
   107   55   56 1    
   108   55   57 1    
   109   55  121 1    
   110   56  122 1    
   111   56  123 1    
   112   56  124 1    
   113   57   58 2    
   114   57   59 am   BACKBONE|DICT|INTERRES
   115   59   60 1    
   116   59  125 1    
   117   60   61 1    
   118   60   62 1    
   119   60  126 1    
   120   61  127 1    
   121   61  128 1    
   122   61  129 1    
   123   62   63 2    
   124   62   64 am   BACKBONE|DICT|INTERRES
   125   64   65 1    
   126   64  130 1    
   127   65   66 1    
   128   65   69 1    
   129   65  131 1    
   130   66   67 am   BACKBONE|DICT|INTERRES
   131   66   68 2    
   132   67  132 1    
   133   67  133 1    
   134   69   70 1    
   135   69  134 1    
   136   69  135 1    
   137   70   71 1    
   138   71  136 1    
   139   71  137 1    
@<TRIPOS>SUBSTRUCTURE
     1 UNK         1 GROUP             0       ****    0 ROOT    
