@<TRIPOS>MOLECULE
3R137
137   139    1
SMALL
USER_CHARGES


@<TRIPOS>ATOM
      1 CA         30.3435   -4.7076   -6.2866 C.3       0 UNK        -0.2020 
      2 C          29.1194   -5.3959   -5.6987 C.2       0 UNK         0.4855 
      3 O          28.5226   -6.2474   -6.3573 O.2       0 UNK        -0.5197 
      4 N          28.7526   -5.0509   -4.4577 N.am      1 UNK        -0.4892 
      5 CA         27.7205   -5.7539   -3.6811 C.3       1 UNK         0.0835 
      6 C6         27.9746   -5.6702   -2.1537 C.3       12 UNK        -0.0855 
      7 S7         29.6777   -6.1423   -1.6866 S.3       12 UNK        -0.2931 
      8 C8         30.2615   -4.6606   -0.8003 C.3       12 UNK         0.0378 
      9 C9         30.3036   -3.4205   -1.6849 C.ar      12 UNK        -0.0802 
     10 C10        31.3464   -3.2387   -2.5992 C.ar      12 UNK        -0.0944 
     11 C11        31.4091   -2.0818   -3.3823 C.ar      12 UNK        -0.0787 
     12 C12        30.4073   -1.1161   -3.2527 C.ar      12 UNK        -0.0862 
     13 C13        29.3673   -1.2713   -2.3327 C.ar      12 UNK        -0.0733 
     14 C14        29.3227   -2.4315   -1.5542 C.ar      12 UNK        -0.0832 
     15 C15        28.2891   -0.2024   -2.1665 C.3       12 UNK         0.0240 
     16 S16        28.9586    1.4791   -1.8665 S.3       12 UNK        -0.2522 
     17 C17        29.3647    2.1891   -3.5116 C.3       12 UNK        -0.0967 
     18 CA         28.4159    1.7774   -4.6622 C.3       5 UNK         0.0660 
     19 N          27.0239    2.1194   -4.3441 N.am      5 UNK        -0.4015 
     20 C          25.9504    1.6243   -4.9677 C.2       4 UNK         0.4946 
     21 O          26.0059    0.8976   -5.9606 O.2       4 UNK        -0.5353 
     22 CA         24.5856    2.0014   -4.3907 C.3       4 UNK         0.0277 
     23 CB         23.7507    2.7870   -5.4158 C.3       4 UNK        -0.1981 
     24 N          23.8994    0.7602   -4.0468 N.am      4 UNK        -0.4209 
     25 C          23.5015    0.4150   -2.8157 C.2       3 UNK         0.4942 
     26 O          23.5860    1.1555   -1.8348 O.2       3 UNK        -0.5208 
     27 CA         22.9020   -0.9926   -2.6336 C.3       3 UNK         0.0250 
     28 CB         21.3658   -0.9236   -2.6377 C.3       3 UNK        -0.1990 
     29 N          23.3418   -1.9718   -3.6342 N.am      3 UNK        -0.4232 
     30 C          24.5875   -2.4555   -3.7328 C.2       2 UNK         0.4993 
     31 O          25.5181   -2.1086   -3.0011 O.2       2 UNK        -0.5286 
     32 CA         24.8259   -3.4784   -4.8555 C.3       2 UNK         0.0209 
     33 CB         24.7822   -2.7925   -6.2318 C.3       2 UNK        -0.1931 
     34 N          26.1212   -4.1429   -4.6716 N.am      2 UNK        -0.4546 
     35 C          26.2820   -5.2945   -4.0043 C.2       1 UNK         0.5154 
     36 O          25.3389   -5.9885   -3.6188 O.2       1 UNK        -0.5181 
     37 C          28.8900    2.3182   -6.0280 C.2       5 UNK         0.5014 
     38 O          29.8123    1.7491   -6.6196 O.2       5 UNK        -0.5248 
     39 N          28.2294    3.3727   -6.5274 N.am      6 UNK        -0.4434 
     40 CA         28.3878    3.8732   -7.8923 C.3       6 UNK         0.0363 
     41 CB         27.6936    5.2377   -8.0312 C.3       6 UNK        -0.1936 
     42 C          27.8454    2.8742   -8.9294 C.2       6 UNK         0.5081 
     43 O          28.5325    2.5755   -9.9056 O.2       6 UNK        -0.5248 
     44 N          26.6361    2.3530   -8.6784 N.am      7 UNK        -0.4718 
     45 CA         25.9590    1.3763   -9.5354 C.3       7 UNK         0.0273 
     46 CB         24.4672    1.3228   -9.1693 C.3       7 UNK        -0.1935 
     47 C          26.5776   -0.0281   -9.4512 C.2       7 UNK         0.5018 
     48 O          26.5209   -0.7601  -10.4393 O.2       7 UNK        -0.5186 
     49 N          27.1395   -0.3691   -8.2806 N.am      8 UNK        -0.4240 
     50 CA         27.7895   -1.6418   -7.9602 C.3       8 UNK         0.0235 
     51 CB         28.3296   -1.5884   -6.5187 C.3       8 UNK        -0.2000 
     52 C          28.8909   -2.0269   -8.9595 C.2       8 UNK         0.4941 
     53 O          28.7661   -3.0532   -9.6289 O.2       8 UNK        -0.5273 
     54 N          29.9266   -1.1851   -9.0553 N.am      9 UNK        -0.4262 
     55 CA         31.0417   -1.3311   -9.9953 C.3       9 UNK         0.0264 
     56 CB         31.9246   -2.5433   -9.6121 C.3       9 UNK        -0.1955 
     57 C          31.8672   -0.0359  -10.0958 C.2       9 UNK         0.5031 
     58 O          33.0574   -0.1149  -10.4057 O.2       9 UNK        -0.5390 
     59 N          31.2545    1.1258   -9.7990 N.am      10 UNK        -0.4204 
     60 CA         31.9099    2.4310   -9.6102 C.3       10 UNK         0.0237 
     61 CB         32.3905    3.0052  -10.9600 C.3       10 UNK        -0.1985 
     62 C          33.0220    2.3688   -8.5421 C.2       10 UNK         0.4970 
     63 O          34.1241    2.8749   -8.7636 O.2       10 UNK        -0.4914 
     64 N          32.7156    1.6945   -7.4276 N.am      11 UNK        -0.4285 
     65 CA         33.6803    1.2433   -6.4149 C.3       11 UNK         0.1007 
     66 C          33.4987    1.9156   -5.0251 C.2       11 UNK         0.5703 
     67 N          32.6373    2.9163   -4.8852 N.am      11 UNK        -0.7361 
     68 O          34.1754    1.5515   -4.0666 O.2       11 UNK        -0.4986 
     69 C69        33.7406   -0.3100   -6.3655 C.3       12 UNK        -0.0947 
     70 S70        32.1625   -1.1112   -5.9087 S.3       12 UNK        -0.2240 
     71 C71        32.6066   -1.8349   -4.2937 C.3       12 UNK         0.0194 
     72 H72        31.1568   -5.4242   -6.3968 H         1 UNK         0.0906 
     73 H73        30.1160   -4.3030   -7.2723 H         1 UNK         0.0906 
     74 H74        30.6967   -3.8923   -5.6563 H         1 UNK         0.0906 
     75 H75        29.2907   -4.3667   -3.9421 H         1 UNK         0.3140 
     76 H76        27.7648   -6.8120   -3.9507 H         1 UNK         0.1085 
     77 H77        27.7470   -4.6712   -1.7812 H         1 UNK         0.0836 
     78 H78        27.2935   -6.3399   -1.6246 H         1 UNK         0.0836 
     79 H79        29.6263   -4.4925    0.0709 H         1 UNK         0.0731 
     80 H80        31.2610   -4.8575   -0.4096 H         1 UNK         0.0731 
     81 H81        32.1221   -3.9884   -2.6796 H         1 UNK         0.1312 
     82 H82        30.4627   -0.2284   -3.8586 H         1 UNK         0.1406 
     83 H83        28.5240   -2.5618   -0.8363 H         1 UNK         0.1631 
     84 H84        27.6704   -0.4463   -1.3016 H         1 UNK         0.0717 
     85 H85        27.6019   -0.2324   -3.0094 H         1 UNK         0.0717 
     86 H86        29.3701    3.2757   -3.4053 H         1 UNK         0.0934 
     87 H87        30.3951    1.9236   -3.7456 H         1 UNK         0.0934 
     88 H88        28.4688    0.6963   -4.7732 H         1 UNK         0.0739 
     89 H89        26.8906    2.6991   -3.5275 H         1 UNK         0.3093 
     90 H90        24.7290    2.6288   -3.5083 H         1 UNK         0.0818 
     91 H91        22.7902    3.0828   -4.9936 H         1 UNK         0.0819 
     92 H92        24.2630    3.6989   -5.7249 H         1 UNK         0.0819 
     93 H93        23.5503    2.2021   -6.3132 H         1 UNK         0.0819 
     94 H94        23.8516    0.0706   -4.7835 H         1 UNK         0.3041 
     95 H95        23.2231   -1.3533   -1.6538 H         1 UNK         0.0784 
     96 H96        21.0043   -0.2259   -1.8807 H         1 UNK         0.0793 
     97 H97        20.9785   -0.5880   -3.6006 H         1 UNK         0.0793 
     98 H98        20.9232   -1.8950   -2.4160 H         1 UNK         0.0793 
     99 H99        22.6364   -2.3050   -4.2761 H         1 UNK         0.3024 
    100 H100       24.0247   -4.2205   -4.8188 H         1 UNK         0.1171 
    101 H101       23.7686   -2.4735   -6.4765 H         1 UNK         0.0786 
    102 H102       25.1014   -3.4691   -7.0245 H         1 UNK         0.0786 
    103 H103       25.4082   -1.9021   -6.2656 H         1 UNK         0.0786 
    104 H104       26.9463   -3.6071   -4.8947 H         1 UNK         0.2977 
    105 H105       27.5037    3.7930   -5.9660 H         1 UNK         0.3127 
    106 H106       29.4520    4.0197   -8.0782 H         1 UNK         0.0770 
    107 H107       26.6232    5.1753   -7.8312 H         1 UNK         0.0814 
    108 H108       27.8131    5.6326   -9.0412 H         1 UNK         0.0814 
    109 H109       28.1207    5.9708   -7.3467 H         1 UNK         0.0814 
    110 H110       26.1659    2.6018   -7.8207 H         1 UNK         0.2983 
    111 H111       26.0462    1.7146  -10.5705 H         1 UNK         0.0947 
    112 H112       23.9236    0.6714   -9.8549 H         1 UNK         0.0806 
    113 H113       24.0050    2.3085   -9.2242 H         1 UNK         0.0806 
    114 H114       24.3141    0.9308   -8.1634 H         1 UNK         0.0806 
    115 H115       27.0077    0.2746   -7.5058 H         1 UNK         0.3000 
    116 H116       27.0233   -2.4159   -8.0139 H         1 UNK         0.0850 
    117 H117       28.7146   -2.5555   -6.2111 H         1 UNK         0.0810 
    118 H118       27.5572   -1.3152   -5.8015 H         1 UNK         0.0810 
    119 H119       29.1437   -0.8727   -6.4133 H         1 UNK         0.0810 
    120 H120       29.9602   -0.3910   -8.4306 H         1 UNK         0.3040 
    121 H121       30.6252   -1.5074  -10.9891 H         1 UNK         0.0766 
    122 H122       32.7372   -2.6827  -10.3260 H         1 UNK         0.0812 
    123 H123       31.3607   -3.4752   -9.5997 H         1 UNK         0.0812 
    124 H124       32.3745   -2.4139   -8.6278 H         1 UNK         0.0812 
    125 H125       30.2508    1.1366   -9.6638 H         1 UNK         0.3205 
    126 H126       31.1538    3.1091   -9.2198 H         1 UNK         0.0754 
    127 H127       32.7820    4.0158  -10.8377 H         1 UNK         0.0769 
    128 H128       31.5722    3.0603  -11.6781 H         1 UNK         0.0769 
    129 H129       33.1835    2.4000  -11.4005 H         1 UNK         0.0769 
    130 H130       31.7577    1.3982   -7.2744 H         1 UNK         0.2981 
    131 H131       34.6769    1.5663   -6.7195 H         1 UNK         0.0541 
    132 H132       32.0946    3.2312   -5.6729 H         1 UNK         0.3459 
    133 H133       32.5499    3.3688   -3.9897 H         1 UNK         0.3459 
    134 H134       34.5370   -0.6399   -5.6966 H         1 UNK         0.0612 
    135 H135       34.0210   -0.6875   -7.3500 H         1 UNK         0.0612 
    136 H136       33.1581   -2.7596   -4.4697 H         1 UNK         0.0624 
    137 H137       33.2835   -1.1604   -3.7681 H         1 UNK         0.0624 
@<TRIPOS>BOND
     1    1    2 1    
     2    1   72 1    
     3    1   73 1    
     4    1   74 1    
     5    2    3 2    
     6    2    4 am   BACKBONE|DICT|INTERRES
     7    4    5 1    
     8    4   75 1    
     9    5    6 1    
    10    5   35 1    
    11    5   76 1    
    12    6    7 1    
    13    6   77 1    
    14    6   78 1    
    15    7    8 1    
    16    8    9 1    
    17    8   79 1    
    18    8   80 1    
    19    9   10 ar   
    20    9   14 ar   
    21   10   11 ar   
    22   10   81 1    
    23   11   12 ar   
    24   11   71 1    
    25   12   13 ar   
    26   12   82 1    
    27   13   14 ar   
    28   13   15 1    
    29   14   83 1    
    30   15   16 1    
    31   15   84 1    
    32   15   85 1    
    33   16   17 1    
    34   17   18 1    
    35   17   86 1    
    36   17   87 1    
    37   18   19 1    
    38   18   37 1    
    39   18   88 1    
    40   19   20 am   BACKBONE|DICT|INTERRES
    41   19   89 1    
    42   20   21 2    
    43   20   22 1    
    44   22   23 1    
    45   22   24 1    
    46   22   90 1    
    47   23   91 1    
    48   23   92 1    
    49   23   93 1    
    50   24   25 am   BACKBONE|DICT|INTERRES
    51   24   94 1    
    52   25   26 2    
    53   25   27 1    
    54   27   28 1    
    55   27   29 1    
    56   27   95 1    
    57   28   96 1    
    58   28   97 1    
    59   28   98 1    
    60   29   30 am   BACKBONE|DICT|INTERRES
    61   29   99 1    
    62   30   31 2    
    63   30   32 1    
    64   32   33 1    
    65   32   34 1    
    66   32  100 1    
    67   33  101 1    
    68   33  102 1    
    69   33  103 1    
    70   34   35 am   BACKBONE|DICT|INTERRES
    71   34  104 1    
    72   35   36 2    
    73   37   38 2    
    74   37   39 am   BACKBONE|DICT|INTERRES
    75   39   40 1    
    76   39  105 1    
    77   40   41 1    
    78   40   42 1    
    79   40  106 1    
    80   41  107 1    
    81   41  108 1    
    82   41  109 1    
    83   42   43 2    
    84   42   44 am   BACKBONE|DICT|INTERRES
    85   44   45 1    
    86   44  110 1    
    87   45   46 1    
    88   45   47 1    
    89   45  111 1    
    90   46  112 1    
    91   46  113 1    
    92   46  114 1    
    93   47   48 2    
    94   47   49 am   BACKBONE|DICT|INTERRES
    95   49   50 1    
    96   49  115 1    
    97   50   51 1    
    98   50   52 1    
    99   50  116 1    
   100   51  117 1    
   101   51  118 1    
   102   51  119 1    
   103   52   53 2    
   104   52   54 am   BACKBONE|DICT|INTERRES
   105   54   55 1    
   106   54  120 1    
   107   55   56 1    
   108   55   57 1    
   109   55  121 1    
   110   56  122 1    
   111   56  123 1    
   112   56  124 1    
   113   57   58 2    
   114   57   59 am   BACKBONE|DICT|INTERRES
   115   59   60 1    
   116   59  125 1    
   117   60   61 1    
   118   60   62 1    
   119   60  126 1    
   120   61  127 1    
   121   61  128 1    
   122   61  129 1    
   123   62   63 2    
   124   62   64 am   BACKBONE|DICT|INTERRES
   125   64   65 1    
   126   64  130 1    
   127   65   66 1    
   128   65   69 1    
   129   65  131 1    
   130   66   67 am   BACKBONE|DICT|INTERRES
   131   66   68 2    
   132   67  132 1    
   133   67  133 1    
   134   69   70 1    
   135   69  134 1    
   136   69  135 1    
   137   70   71 1    
   138   71  136 1    
   139   71  137 1    
@<TRIPOS>SUBSTRUCTURE
     1 UNK         1 GROUP             0       ****    0 ROOT    
