@<TRIPOS>MOLECULE
3R137
137   139    1
SMALL
USER_CHARGES


@<TRIPOS>ATOM
      1 CA         24.0770   -6.5845   -4.2632 C.3       0 UNK        -0.2020 
      2 C          24.7248   -5.8623   -3.0919 C.2       0 UNK         0.4855 
      3 O          24.0488   -5.5630   -2.1074 O.2       0 UNK        -0.5197 
      4 N          26.0288   -5.5722   -3.1911 N.am      1 UNK        -0.4892 
      5 CA         26.8301   -4.8862   -2.1711 C.3       1 UNK         0.0835 
      6 C6         28.3377   -5.1759   -2.3803 C.3       12 UNK        -0.0855 
      7 S7         29.3294   -4.8353   -0.8921 S.3       12 UNK        -0.2931 
      8 C8         30.9157   -4.3327   -1.6383 C.3       12 UNK         0.0378 
      9 C9         30.9221   -2.8943   -2.1470 C.ar      12 UNK        -0.0802 
     10 C10        31.3380   -2.6057   -3.4518 C.ar      12 UNK        -0.0944 
     11 C11        31.4648   -1.2797   -3.8806 C.ar      12 UNK        -0.0787 
     12 C12        31.1553   -0.2406   -2.9986 C.ar      12 UNK        -0.0862 
     13 C13        30.6822   -0.5133   -1.7109 C.ar      12 UNK        -0.0733 
     14 C14        30.5838   -1.8427   -1.2891 C.ar      12 UNK        -0.0832 
     15 C15        30.2939    0.6125   -0.7543 C.3       12 UNK         0.0240 
     16 S16        29.2477    1.9104   -1.5054 S.3       12 UNK        -0.2522 
     17 C17        27.9212    0.9440   -2.3037 C.3       12 UNK        -0.0967 
     18 CA         28.0403    0.9980   -3.8508 C.3       5 UNK         0.0660 
     19 N          27.6954   -0.2794   -4.4768 N.am      5 UNK        -0.4015 
     20 C          27.8973   -0.5787   -5.7674 C.2       4 UNK         0.4946 
     21 O          28.4599    0.1664   -6.5681 O.2       4 UNK        -0.5353 
     22 CA         27.3290   -1.9163   -6.2629 C.3       4 UNK         0.0277 
     23 CB         28.3029   -3.0675   -5.9641 C.3       4 UNK        -0.1981 
     24 N          26.0161   -2.1960   -5.6750 N.am      4 UNK        -0.4209 
     25 C          24.9025   -1.5023   -5.9580 C.2       3 UNK         0.4942 
     26 O          24.8537   -0.5996   -6.7924 O.2       3 UNK        -0.5208 
     27 CA         23.6425   -1.8406   -5.1423 C.3       3 UNK         0.0250 
     28 CB         22.9198   -3.0552   -5.7455 C.3       3 UNK        -0.1990 
     29 N          23.9321   -2.0905   -3.7279 N.am      3 UNK        -0.4232 
     30 C          24.4185   -1.1747   -2.8765 C.2       2 UNK         0.4993 
     31 O          24.6167    0.0015   -3.1749 O.2       2 UNK        -0.5286 
     32 CA         24.8167   -1.6714   -1.4765 C.3       2 UNK         0.0209 
     33 CB         23.6152   -1.6219   -0.5203 C.3       2 UNK        -0.1931 
     34 N          25.3787   -3.0260   -1.4938 N.am      2 UNK        -0.4546 
     35 C          26.4905   -3.3804   -2.1526 C.2       1 UNK         0.5154 
     36 O          27.1710   -2.5799   -2.7962 O.2       1 UNK        -0.5181 
     37 C          27.2556    2.1805   -4.4558 C.2       5 UNK         0.5014 
     38 O          27.8530    3.2187   -4.7429 O.2       5 UNK        -0.5248 
     39 N          25.9446    1.9926   -4.6691 N.am      6 UNK        -0.4434 
     40 CA         25.0578    2.9531   -5.3296 C.3       6 UNK         0.0363 
     41 CB         23.5987    2.4897   -5.1929 C.3       6 UNK        -0.1936 
     42 C          25.4186    3.1867   -6.8067 C.2       6 UNK         0.5081 
     43 O          25.3817    4.3313   -7.2596 O.2       6 UNK        -0.5248 
     44 N          25.7713    2.1114   -7.5270 N.am      7 UNK        -0.4718 
     45 CA         26.2527    2.1670   -8.9106 C.3       7 UNK         0.0273 
     46 CB         26.2796    0.7496   -9.5054 C.3       7 UNK        -0.1935 
     47 C          27.6379    2.8231   -9.0356 C.2       7 UNK         0.5018 
     48 O          27.8883    3.5175  -10.0218 O.2       7 UNK        -0.5186 
     49 N          28.5132    2.5704   -8.0510 N.am      8 UNK        -0.4240 
     50 CA         29.8995    3.0279   -7.8879 C.3       8 UNK         0.0235 
     51 CB         29.9970    4.5645   -7.8388 C.3       8 UNK        -0.2000 
     52 C          30.8714    2.4290   -8.9167 C.2       8 UNK         0.4941 
     53 O          31.8975    1.8739   -8.5254 O.2       8 UNK        -0.5273 
     54 N          30.5090    2.4939  -10.2049 N.am      9 UNK        -0.4262 
     55 CA         31.2484    1.9568  -11.3539 C.3       9 UNK         0.0264 
     56 CB         30.5497    2.4116  -12.6460 C.3       9 UNK        -0.1955 
     57 C          31.4287    0.4253  -11.3464 C.2       9 UNK         0.5031 
     58 O          32.2342   -0.0890  -12.1234 O.2       9 UNK        -0.5390 
     59 N          30.6926   -0.2745  -10.4720 N.am      10 UNK        -0.4204 
     60 CA         30.8596   -1.6956  -10.1698 C.3       10 UNK         0.0237 
     61 CB         29.6867   -2.1551   -9.2915 C.3       10 UNK        -0.1985 
     62 C          32.2060   -2.0136   -9.4894 C.2       10 UNK         0.4970 
     63 O          32.7237   -3.1140   -9.6838 O.2       10 UNK        -0.4914 
     64 N          32.7528   -1.0563   -8.7270 N.am      11 UNK        -0.4285 
     65 CA         34.1176   -1.1044   -8.1918 C.3       11 UNK         0.1007 
     66 C          35.1184   -0.5756   -9.2530 C.2       11 UNK         0.5703 
     67 N          36.2300   -1.2684   -9.4606 N.am      11 UNK        -0.7361 
     68 O          34.9175    0.4757   -9.8579 O.2       11 UNK        -0.4986 
     69 C69        34.2282   -0.3031   -6.8679 C.3       12 UNK        -0.0947 
     70 S70        33.7459   -1.2892   -5.4145 S.3       12 UNK        -0.2240 
     71 C71        31.9619   -0.9635   -5.2845 C.3       12 UNK         0.0194 
     72 H72        24.7148   -6.5833   -5.1468 H         1 UNK         0.0906 
     73 H73        23.8685   -7.6195   -3.9936 H         1 UNK         0.0906 
     74 H74        23.1333   -6.1076   -4.5262 H         1 UNK         0.0906 
     75 H75        26.5283   -5.8400   -4.0276 H         1 UNK         0.3140 
     76 H76        26.5488   -5.2985   -1.1989 H         1 UNK         0.1085 
     77 H77        28.4835   -6.2317   -2.6148 H         1 UNK         0.0836 
     78 H78        28.7381   -4.6273   -3.2326 H         1 UNK         0.0836 
     79 H79        31.1749   -5.0323   -2.4347 H         1 UNK         0.0731 
     80 H80        31.6972   -4.4305   -0.8837 H         1 UNK         0.0731 
     81 H81        31.6047   -3.4091   -4.1248 H         1 UNK         0.1312 
     82 H82        31.2680    0.7858   -3.3192 H         1 UNK         0.1406 
     83 H83        30.2546   -2.0652   -0.2832 H         1 UNK         0.1631 
     84 H84        31.2034    1.0748   -0.3691 H         1 UNK         0.0717 
     85 H85        29.7628    0.2114    0.1104 H         1 UNK         0.0717 
     86 H86        27.9827   -0.0853   -1.9472 H         1 UNK         0.0934 
     87 H87        26.9516    1.3061   -1.9554 H         1 UNK         0.0934 
     88 H88        29.0840    1.1682   -4.1178 H         1 UNK         0.0739 
     89 H89        27.3033   -0.9967   -3.8727 H         1 UNK         0.3093 
     90 H90        27.2039   -1.8486   -7.3456 H         1 UNK         0.0818 
     91 H91        28.5344   -3.1336   -4.9033 H         1 UNK         0.0819 
     92 H92        27.9023   -4.0279   -6.2880 H         1 UNK         0.0819 
     93 H93        29.2523   -2.9221   -6.4781 H         1 UNK         0.0819 
     94 H94        25.9862   -2.8827   -4.9363 H         1 UNK         0.3041 
     95 H95        22.9712   -0.9809   -5.1970 H         1 UNK         0.0784 
     96 H96        22.6431   -2.8648   -6.7835 H         1 UNK         0.0793 
     97 H97        23.5471   -3.9467   -5.7360 H         1 UNK         0.0793 
     98 H98        22.0013   -3.2822   -5.2038 H         1 UNK         0.0793 
     99 H99        23.7904   -3.0297   -3.3850 H         1 UNK         0.3024 
    100 H100       25.5870   -0.9956   -1.0986 H         1 UNK         0.1171 
    101 H101       23.1886   -0.6184   -0.4819 H         1 UNK         0.0786 
    102 H102       23.9067   -1.8872    0.4962 H         1 UNK         0.0786 
    103 H103       22.8216   -2.3028   -0.8308 H         1 UNK         0.0786 
    104 H104       24.8209   -3.7630   -1.0787 H         1 UNK         0.2977 
    105 H105       25.5105    1.1404   -4.3180 H         1 UNK         0.3127 
    106 H106       25.1606    3.9079   -4.8096 H         1 UNK         0.0770 
    107 H107       23.4345    1.5261   -5.6760 H         1 UNK         0.0814 
    108 H108       22.9169    3.2063   -5.6525 H         1 UNK         0.0814 
    109 H109       23.3101    2.3918   -4.1462 H         1 UNK         0.0814 
    110 H110       25.6949    1.1908   -7.1038 H         1 UNK         0.2983 
    111 H111       25.5492    2.7688   -9.4900 H         1 UNK         0.0947 
    112 H112       26.6126    0.7668  -10.5440 H         1 UNK         0.0806 
    113 H113       25.2886    0.2954   -9.4901 H         1 UNK         0.0806 
    114 H114       26.9550    0.0932   -8.9559 H         1 UNK         0.0806 
    115 H115       28.2265    1.8873   -7.3530 H         1 UNK         0.3000 
    116 H116       30.2095    2.6516   -6.9112 H         1 UNK         0.0850 
    117 H117       31.0169    4.8810   -7.6168 H         1 UNK         0.0810 
    118 H118       29.3532    4.9729   -7.0594 H         1 UNK         0.0810 
    119 H119       29.7132    5.0267   -8.7844 H         1 UNK         0.0810 
    120 H120       29.6216    2.9525  -10.4027 H         1 UNK         0.3040 
    121 H121       32.2494    2.3924  -11.3303 H         1 UNK         0.0766 
    122 H122       30.5010    3.4988  -12.7096 H         1 UNK         0.0812 
    123 H123       29.5315    2.0255  -12.7098 H         1 UNK         0.0812 
    124 H124       31.0881    2.0615  -13.5279 H         1 UNK         0.0812 
    125 H125       30.0506    0.2407   -9.8885 H         1 UNK         0.3205 
    126 H126       30.8259   -2.2485  -11.1110 H         1 UNK         0.0754 
    127 H127       29.7812   -3.2096   -9.0282 H         1 UNK         0.0769 
    128 H128       28.7327   -2.0336   -9.8051 H         1 UNK         0.0769 
    129 H129       29.6428   -1.5845   -8.3639 H         1 UNK         0.0769 
    130 H130       32.3044   -0.1480   -8.6746 H         1 UNK         0.2981 
    131 H131       34.3784   -2.1441   -7.9821 H         1 UNK         0.0541 
    132 H132       36.4124   -2.1250   -8.9608 H         1 UNK         0.3459 
    133 H133       36.8985   -0.9302  -10.1351 H         1 UNK         0.3459 
    134 H134       33.6534    0.6233   -6.9070 H         1 UNK         0.0612 
    135 H135       35.2610    0.0007   -6.6861 H         1 UNK         0.0612 
    136 H136       31.4271   -1.5710   -6.0159 H         1 UNK         0.0624 
    137 H137       31.7553    0.0780   -5.5368 H         1 UNK         0.0624 
@<TRIPOS>BOND
     1    1    2 1    
     2    1   72 1    
     3    1   73 1    
     4    1   74 1    
     5    2    3 2    
     6    2    4 am   BACKBONE|DICT|INTERRES
     7    4    5 1    
     8    4   75 1    
     9    5    6 1    
    10    5   35 1    
    11    5   76 1    
    12    6    7 1    
    13    6   77 1    
    14    6   78 1    
    15    7    8 1    
    16    8    9 1    
    17    8   79 1    
    18    8   80 1    
    19    9   10 ar   
    20    9   14 ar   
    21   10   11 ar   
    22   10   81 1    
    23   11   12 ar   
    24   11   71 1    
    25   12   13 ar   
    26   12   82 1    
    27   13   14 ar   
    28   13   15 1    
    29   14   83 1    
    30   15   16 1    
    31   15   84 1    
    32   15   85 1    
    33   16   17 1    
    34   17   18 1    
    35   17   86 1    
    36   17   87 1    
    37   18   19 1    
    38   18   37 1    
    39   18   88 1    
    40   19   20 am   BACKBONE|DICT|INTERRES
    41   19   89 1    
    42   20   21 2    
    43   20   22 1    
    44   22   23 1    
    45   22   24 1    
    46   22   90 1    
    47   23   91 1    
    48   23   92 1    
    49   23   93 1    
    50   24   25 am   BACKBONE|DICT|INTERRES
    51   24   94 1    
    52   25   26 2    
    53   25   27 1    
    54   27   28 1    
    55   27   29 1    
    56   27   95 1    
    57   28   96 1    
    58   28   97 1    
    59   28   98 1    
    60   29   30 am   BACKBONE|DICT|INTERRES
    61   29   99 1    
    62   30   31 2    
    63   30   32 1    
    64   32   33 1    
    65   32   34 1    
    66   32  100 1    
    67   33  101 1    
    68   33  102 1    
    69   33  103 1    
    70   34   35 am   BACKBONE|DICT|INTERRES
    71   34  104 1    
    72   35   36 2    
    73   37   38 2    
    74   37   39 am   BACKBONE|DICT|INTERRES
    75   39   40 1    
    76   39  105 1    
    77   40   41 1    
    78   40   42 1    
    79   40  106 1    
    80   41  107 1    
    81   41  108 1    
    82   41  109 1    
    83   42   43 2    
    84   42   44 am   BACKBONE|DICT|INTERRES
    85   44   45 1    
    86   44  110 1    
    87   45   46 1    
    88   45   47 1    
    89   45  111 1    
    90   46  112 1    
    91   46  113 1    
    92   46  114 1    
    93   47   48 2    
    94   47   49 am   BACKBONE|DICT|INTERRES
    95   49   50 1    
    96   49  115 1    
    97   50   51 1    
    98   50   52 1    
    99   50  116 1    
   100   51  117 1    
   101   51  118 1    
   102   51  119 1    
   103   52   53 2    
   104   52   54 am   BACKBONE|DICT|INTERRES
   105   54   55 1    
   106   54  120 1    
   107   55   56 1    
   108   55   57 1    
   109   55  121 1    
   110   56  122 1    
   111   56  123 1    
   112   56  124 1    
   113   57   58 2    
   114   57   59 am   BACKBONE|DICT|INTERRES
   115   59   60 1    
   116   59  125 1    
   117   60   61 1    
   118   60   62 1    
   119   60  126 1    
   120   61  127 1    
   121   61  128 1    
   122   61  129 1    
   123   62   63 2    
   124   62   64 am   BACKBONE|DICT|INTERRES
   125   64   65 1    
   126   64  130 1    
   127   65   66 1    
   128   65   69 1    
   129   65  131 1    
   130   66   67 am   BACKBONE|DICT|INTERRES
   131   66   68 2    
   132   67  132 1    
   133   67  133 1    
   134   69   70 1    
   135   69  134 1    
   136   69  135 1    
   137   70   71 1    
   138   71  136 1    
   139   71  137 1    
@<TRIPOS>SUBSTRUCTURE
     1 UNK         1 GROUP             0       ****    0 ROOT    
