@<TRIPOS>MOLECULE
3R137
137   139    1
SMALL
USER_CHARGES


@<TRIPOS>ATOM
      1 CA         28.4201    0.5775    0.7747 C.3       0 UNK        -0.2020 
      2 C          27.9168   -0.1560   -0.4583 C.2       0 UNK         0.4855 
      3 O          27.2788    0.4577   -1.3133 O.2       0 UNK        -0.5197 
      4 N          28.1866   -1.4672   -0.5458 N.am      1 UNK        -0.4892 
      5 CA         27.8691   -2.3646   -1.6705 C.3       1 UNK         0.0835 
      6 C6         28.2942   -3.8260   -1.3786 C.3       12 UNK        -0.0855 
      7 S7         30.0296   -3.9701   -0.8260 S.3       12 UNK        -0.2931 
      8 C8         30.7085   -5.1964   -1.9864 C.3       12 UNK         0.0378 
      9 C9         30.9796   -4.5969   -3.3580 C.ar      12 UNK        -0.0802 
     10 C10        32.0975   -3.7796   -3.5515 C.ar      12 UNK        -0.0944 
     11 C11        32.3870   -3.2580   -4.8148 C.ar      12 UNK        -0.0787 
     12 C12        31.5376   -3.5549   -5.8841 C.ar      12 UNK        -0.0862 
     13 C13        30.4129   -4.3701   -5.7119 C.ar      12 UNK        -0.0733 
     14 C14        30.1455   -4.8945   -4.4407 C.ar      12 UNK        -0.0832 
     15 C15        29.5652   -4.7088   -6.9411 C.3       12 UNK         0.0240 
     16 S16        27.8394   -5.2330   -6.6355 S.3       12 UNK        -0.2522 
     17 C17        27.1048   -3.8137   -5.7581 C.3       12 UNK        -0.0967 
     18 CA         26.6848   -2.6395   -6.6846 C.3       5 UNK         0.0660 
     19 N          25.4261   -2.0091   -6.2659 N.am      5 UNK        -0.4015 
     20 C          24.7469   -1.1281   -7.0181 C.2       4 UNK         0.4946 
     21 O          25.0998   -0.7720   -8.1430 O.2       4 UNK        -0.5353 
     22 CA         23.4726   -0.5173   -6.4159 C.3       4 UNK         0.0277 
     23 CB         22.3034   -1.5119   -6.4944 C.3       4 UNK        -0.1981 
     24 N          23.6243   -0.0500   -5.0376 N.am      4 UNK        -0.4209 
     25 C          24.4791    0.8872   -4.6092 C.2       3 UNK         0.4942 
     26 O          25.3151    1.4284   -5.3297 O.2       3 UNK        -0.5208 
     27 CA         24.4000    1.2883   -3.1253 C.3       3 UNK         0.0250 
     28 CB         23.1855    2.1953   -2.8472 C.3       3 UNK        -0.1990 
     29 N          24.4602    0.1462   -2.2059 N.am      3 UNK        -0.4232 
     30 C          23.5865   -0.8630   -2.0551 C.2       2 UNK         0.4993 
     31 O          22.4856   -0.8980   -2.6088 O.2       2 UNK        -0.5286 
     32 CA         24.0355   -2.0594   -1.1885 C.3       2 UNK         0.0209 
     33 CB         23.4099   -3.3879   -1.6655 C.3       2 UNK        -0.1931 
     34 N          25.4951   -2.2012   -1.0788 N.am      2 UNK        -0.4546 
     35 C          26.3821   -2.3291   -2.0804 C.2       1 UNK         0.5154 
     36 O          26.0774   -2.3584   -3.2738 O.2       1 UNK        -0.5181 
     37 C          27.8003   -1.5858   -6.7814 C.2       5 UNK         0.5014 
     38 O          28.5109   -1.5333   -7.7863 O.2       5 UNK        -0.5248 
     39 N          27.8982   -0.7409   -5.7444 N.am      6 UNK        -0.4434 
     40 CA         28.8786    0.3365   -5.6514 C.3       6 UNK         0.0363 
     41 CB         28.8098    1.0015   -4.2693 C.3       6 UNK        -0.1936 
     42 C          28.7480    1.3714   -6.7769 C.2       6 UNK         0.5081 
     43 O          29.7647    1.7474   -7.3588 O.2       6 UNK        -0.5248 
     44 N          27.5108    1.7764   -7.0912 N.am      7 UNK        -0.4718 
     45 CA         27.1872    2.6754   -8.1992 C.3       7 UNK         0.0273 
     46 CB         25.7109    3.0937   -8.1105 C.3       7 UNK        -0.1935 
     47 C          27.4943    2.0650   -9.5757 C.2       7 UNK         0.5018 
     48 O          28.0387    2.7647  -10.4300 O.2       7 UNK        -0.5186 
     49 N          27.1558    0.7805   -9.7649 N.am      8 UNK        -0.4240 
     50 CA         27.3998    0.0398  -11.0054 C.3       8 UNK         0.0235 
     51 CB         26.6468   -1.3001  -10.9708 C.3       8 UNK        -0.2000 
     52 C          28.8938   -0.1865  -11.2859 C.2       8 UNK         0.4941 
     53 O          29.3338    0.0181  -12.4180 O.2       8 UNK        -0.5273 
     54 N          29.6435   -0.6040  -10.2578 N.am      9 UNK        -0.4262 
     55 CA         31.0753   -0.8980  -10.3526 C.3       9 UNK         0.0264 
     56 CB         31.4504   -1.8714   -9.2274 C.3       9 UNK        -0.1955 
     57 C          31.9770    0.3455  -10.2811 C.2       9 UNK         0.5031 
     58 O          33.1502    0.2398  -10.6416 O.2       9 UNK        -0.5390 
     59 N          31.4409    1.4699   -9.7817 N.am      10 UNK        -0.4204 
     60 CA         32.1559    2.6894   -9.3824 C.3       10 UNK         0.0237 
     61 CB         32.8267    3.3827  -10.5881 C.3       10 UNK        -0.1985 
     62 C          33.1209    2.4074   -8.2124 C.2       10 UNK         0.4970 
     63 O          34.2927    2.7862   -8.2607 O.2       10 UNK        -0.4914 
     64 N          32.5965    1.7197   -7.1894 N.am      11 UNK        -0.4285 
     65 CA         33.3108    1.3347   -5.9623 C.3       11 UNK         0.1007 
     66 C          33.6061    2.5283   -5.0050 C.2       11 UNK         0.5703 
     67 N          32.8809    3.6382   -5.0923 N.am      11 UNK        -0.7361 
     68 O          34.5184    2.4566   -4.1856 O.2       11 UNK        -0.4986 
     69 C69        32.5668    0.1770   -5.2401 C.3       12 UNK        -0.0947 
     70 S70        33.6354   -0.8394   -4.1681 S.3       12 UNK        -0.2240 
     71 C71        33.6556   -2.4401   -5.0378 C.3       12 UNK         0.0194 
     72 H72        28.9595   -0.0839    1.4525 H         1 UNK         0.0906 
     73 H73        29.0918    1.3835    0.4808 H         1 UNK         0.0906 
     74 H74        27.5829    1.0134    1.3191 H         1 UNK         0.0906 
     75 H75        28.7302   -1.9023    0.1873 H         1 UNK         0.3140 
     76 H76        28.4434   -2.0097   -2.5289 H         1 UNK         0.1085 
     77 H77        27.6664   -4.2606   -0.5978 H         1 UNK         0.0836 
     78 H78        28.1408   -4.4448   -2.2646 H         1 UNK         0.0836 
     79 H79        31.6424   -5.5840   -1.5765 H         1 UNK         0.0731 
     80 H80        30.0333   -6.0509   -2.0557 H         1 UNK         0.0731 
     81 H81        32.7543   -3.5631   -2.7198 H         1 UNK         0.1312 
     82 H82        31.7755   -3.1785   -6.8666 H         1 UNK         0.1406 
     83 H83        29.2996   -5.5509   -4.2929 H         1 UNK         0.1631 
     84 H84        30.0660   -5.5150   -7.4783 H         1 UNK         0.0717 
     85 H85        29.5487   -3.8635   -7.6266 H         1 UNK         0.0717 
     86 H86        27.7682   -3.4925   -4.9534 H         1 UNK         0.0934 
     87 H87        26.2252   -4.2139   -5.2513 H         1 UNK         0.0934 
     88 H88        26.5164   -3.0313   -7.6903 H         1 UNK         0.0739 
     89 H89        25.1152   -2.2025   -5.3218 H         1 UNK         0.3093 
     90 H90        23.2160    0.3542   -7.0219 H         1 UNK         0.0818 
     91 H91        21.3673   -1.0476   -6.1834 H         1 UNK         0.0819 
     92 H92        22.1622   -1.8701   -7.5152 H         1 UNK         0.0819 
     93 H93        22.4700   -2.3843   -5.8611 H         1 UNK         0.0819 
     94 H94        22.9993   -0.4465   -4.3387 H         1 UNK         0.3041 
     95 H95        25.2968    1.8737   -2.9150 H         1 UNK         0.0784 
     96 H96        23.2183    3.0873   -3.4742 H         1 UNK         0.0793 
     97 H97        22.2391    1.6937   -3.0505 H         1 UNK         0.0793 
     98 H98        23.1714    2.5289   -1.8096 H         1 UNK         0.0793 
     99 H99        25.3576    0.0556   -1.7369 H         1 UNK         0.3024 
    100 H100       23.6635   -1.8560   -0.1829 H         1 UNK         0.1171 
    101 H101       23.7250   -4.2224   -1.0391 H         1 UNK         0.0786 
    102 H102       23.6868   -3.6181   -2.6949 H         1 UNK         0.0786 
    103 H103       22.3207   -3.3484   -1.6230 H         1 UNK         0.0786 
    104 H104       25.8699   -2.1482   -0.1413 H         1 UNK         0.2977 
    105 H105       27.2437   -0.8373   -4.9804 H         1 UNK         0.3127 
    106 H106       29.8548   -0.1327   -5.7591 H         1 UNK         0.0770 
    107 H107       27.8182    1.4049   -4.0608 H         1 UNK         0.0814 
    108 H108       29.5193    1.8268   -4.1955 H         1 UNK         0.0814 
    109 H109       29.0571    0.2941   -3.4782 H         1 UNK         0.0814 
    110 H110       26.7297    1.4615   -6.5177 H         1 UNK         0.2983 
    111 H111       27.8032    3.5708   -8.0912 H         1 UNK         0.0947 
    112 H112       25.4449    3.7700   -8.9240 H         1 UNK         0.0806 
    113 H113       25.5031    3.6136   -7.1750 H         1 UNK         0.0806 
    114 H114       25.0440    2.2322   -8.1673 H         1 UNK         0.0806 
    115 H115       26.6787    0.2812   -9.0204 H         1 UNK         0.3000 
    116 H116       26.9964    0.6313  -11.8301 H         1 UNK         0.0850 
    117 H117       26.8161   -1.8690  -11.8860 H         1 UNK         0.0810 
    118 H118       25.5714   -1.1465  -10.8793 H         1 UNK         0.0810 
    119 H119       26.9663   -1.9223  -10.1338 H         1 UNK         0.0810 
    120 H120       29.1926   -0.7985   -9.3641 H         1 UNK         0.3040 
    121 H121       31.2718   -1.3907  -11.3074 H         1 UNK         0.0766 
    122 H122       32.5095   -2.1308   -9.2639 H         1 UNK         0.0812 
    123 H123       31.2514   -1.4330   -8.2489 H         1 UNK         0.0812 
    124 H124       30.8859   -2.8000   -9.3065 H         1 UNK         0.0812 
    125 H125       30.4767    1.4250   -9.4748 H         1 UNK         0.3205 
    126 H126       31.3977    3.3722   -8.9958 H         1 UNK         0.0754 
    127 H127       33.2375    4.3506  -10.2986 H         1 UNK         0.0769 
    128 H128       32.1104    3.5610  -11.3901 H         1 UNK         0.0769 
    129 H129       33.6482    2.7936  -10.9964 H         1 UNK         0.0769 
    130 H130       31.5981    1.5278   -7.2160 H         1 UNK         0.2981 
    131 H131       34.2815    0.9522   -6.2837 H         1 UNK         0.0541 
    132 H132       32.1340    3.7109   -5.7638 H         1 UNK         0.3459 
    133 H133       33.0847    4.4095   -4.4768 H         1 UNK         0.3459 
    134 H134       32.1126   -0.4871   -5.9762 H         1 UNK         0.0612 
    135 H135       31.7474    0.5640   -4.6334 H         1 UNK         0.0612 
    136 H136       33.8348   -2.2704   -6.1008 H         1 UNK         0.0624 
    137 H137       34.5082   -3.0164   -4.6762 H         1 UNK         0.0624 
@<TRIPOS>BOND
     1    1    2 1    
     2    1   72 1    
     3    1   73 1    
     4    1   74 1    
     5    2    3 2    
     6    2    4 am   BACKBONE|DICT|INTERRES
     7    4    5 1    
     8    4   75 1    
     9    5    6 1    
    10    5   35 1    
    11    5   76 1    
    12    6    7 1    
    13    6   77 1    
    14    6   78 1    
    15    7    8 1    
    16    8    9 1    
    17    8   79 1    
    18    8   80 1    
    19    9   10 ar   
    20    9   14 ar   
    21   10   11 ar   
    22   10   81 1    
    23   11   12 ar   
    24   11   71 1    
    25   12   13 ar   
    26   12   82 1    
    27   13   14 ar   
    28   13   15 1    
    29   14   83 1    
    30   15   16 1    
    31   15   84 1    
    32   15   85 1    
    33   16   17 1    
    34   17   18 1    
    35   17   86 1    
    36   17   87 1    
    37   18   19 1    
    38   18   37 1    
    39   18   88 1    
    40   19   20 am   BACKBONE|DICT|INTERRES
    41   19   89 1    
    42   20   21 2    
    43   20   22 1    
    44   22   23 1    
    45   22   24 1    
    46   22   90 1    
    47   23   91 1    
    48   23   92 1    
    49   23   93 1    
    50   24   25 am   BACKBONE|DICT|INTERRES
    51   24   94 1    
    52   25   26 2    
    53   25   27 1    
    54   27   28 1    
    55   27   29 1    
    56   27   95 1    
    57   28   96 1    
    58   28   97 1    
    59   28   98 1    
    60   29   30 am   BACKBONE|DICT|INTERRES
    61   29   99 1    
    62   30   31 2    
    63   30   32 1    
    64   32   33 1    
    65   32   34 1    
    66   32  100 1    
    67   33  101 1    
    68   33  102 1    
    69   33  103 1    
    70   34   35 am   BACKBONE|DICT|INTERRES
    71   34  104 1    
    72   35   36 2    
    73   37   38 2    
    74   37   39 am   BACKBONE|DICT|INTERRES
    75   39   40 1    
    76   39  105 1    
    77   40   41 1    
    78   40   42 1    
    79   40  106 1    
    80   41  107 1    
    81   41  108 1    
    82   41  109 1    
    83   42   43 2    
    84   42   44 am   BACKBONE|DICT|INTERRES
    85   44   45 1    
    86   44  110 1    
    87   45   46 1    
    88   45   47 1    
    89   45  111 1    
    90   46  112 1    
    91   46  113 1    
    92   46  114 1    
    93   47   48 2    
    94   47   49 am   BACKBONE|DICT|INTERRES
    95   49   50 1    
    96   49  115 1    
    97   50   51 1    
    98   50   52 1    
    99   50  116 1    
   100   51  117 1    
   101   51  118 1    
   102   51  119 1    
   103   52   53 2    
   104   52   54 am   BACKBONE|DICT|INTERRES
   105   54   55 1    
   106   54  120 1    
   107   55   56 1    
   108   55   57 1    
   109   55  121 1    
   110   56  122 1    
   111   56  123 1    
   112   56  124 1    
   113   57   58 2    
   114   57   59 am   BACKBONE|DICT|INTERRES
   115   59   60 1    
   116   59  125 1    
   117   60   61 1    
   118   60   62 1    
   119   60  126 1    
   120   61  127 1    
   121   61  128 1    
   122   61  129 1    
   123   62   63 2    
   124   62   64 am   BACKBONE|DICT|INTERRES
   125   64   65 1    
   126   64  130 1    
   127   65   66 1    
   128   65   69 1    
   129   65  131 1    
   130   66   67 am   BACKBONE|DICT|INTERRES
   131   66   68 2    
   132   67  132 1    
   133   67  133 1    
   134   69   70 1    
   135   69  134 1    
   136   69  135 1    
   137   70   71 1    
   138   71  136 1    
   139   71  137 1    
@<TRIPOS>SUBSTRUCTURE
     1 UNK         1 GROUP             0       ****    0 ROOT    
