@<TRIPOS>MOLECULE
3R137
137   139    1
SMALL
USER_CHARGES


@<TRIPOS>ATOM
      1 CA         27.1568   -8.2014   -3.5347 C.3       0 UNK        -0.2020 
      2 C          26.8900   -7.0694   -2.5538 C.2       0 UNK         0.4855 
      3 O          26.0330   -7.2063   -1.6798 O.2       0 UNK        -0.5197 
      4 N          27.6227   -5.9564   -2.6867 N.am      1 UNK        -0.4892 
      5 CA         27.4408   -4.7385   -1.8884 C.3       1 UNK         0.0835 
      6 C6         28.7164   -3.8590   -1.9155 C.3       12 UNK        -0.0855 
      7 S7         29.0153   -3.0036   -0.3344 S.3       12 UNK        -0.2931 
      8 C8         30.7772   -2.5696   -0.5154 C.3       12 UNK         0.0378 
      9 C9         30.9842   -1.5952   -1.6647 C.ar      12 UNK        -0.0802 
     10 C10        31.4167   -2.0500   -2.9148 C.ar      12 UNK        -0.0944 
     11 C11        31.5405   -1.1621   -3.9875 C.ar      12 UNK        -0.0787 
     12 C12        31.2285    0.1874   -3.8022 C.ar      12 UNK        -0.0862 
     13 C13        30.8038    0.6554   -2.5539 C.ar      12 UNK        -0.0733 
     14 C14        30.7050   -0.2388   -1.4840 C.ar      12 UNK        -0.0832 
     15 C15        30.4304    2.1233   -2.3759 C.3       12 UNK         0.0240 
     16 S16        28.7762    2.3784   -1.6348 S.3       12 UNK        -0.2522 
     17 C17        27.7030    1.1468   -2.4594 C.3       12 UNK        -0.0967 
     18 CA         27.7485    1.1631   -4.0080 C.3       5 UNK         0.0660 
     19 N          27.3229   -0.1207   -4.5683 N.am      5 UNK        -0.4015 
     20 C          27.6765   -0.5740   -5.7794 C.2       4 UNK         0.4946 
     21 O          28.4391    0.0274   -6.5342 O.2       4 UNK        -0.5353 
     22 CA         27.0424   -1.8930   -6.2596 C.3       4 UNK         0.0277 
     23 CB         27.9452   -3.0899   -5.9238 C.3       4 UNK        -0.1981 
     24 N          25.6971   -2.1149   -5.7205 N.am      4 UNK        -0.4209 
     25 C          24.6442   -1.3349   -6.0109 C.2       3 UNK         0.4942 
     26 O          24.6918   -0.4120   -6.8230 O.2       3 UNK        -0.5208 
     27 CA         23.3380   -1.5651   -5.2298 C.3       3 UNK         0.0250 
     28 CB         22.3922   -2.4761   -6.0271 C.3       3 UNK        -0.1990 
     29 N          23.5236   -2.1160   -3.8844 N.am      3 UNK        -0.4232 
     30 C          24.2736   -1.5838   -2.9079 C.2       2 UNK         0.4993 
     31 O          24.9089   -0.5352   -3.0286 O.2       2 UNK        -0.5286 
     32 CA         24.3750   -2.3800   -1.5924 C.3       2 UNK         0.0209 
     33 CB         23.1801   -3.3312   -1.3566 C.3       2 UNK        -0.1931 
     34 N          25.6355   -3.1274   -1.4627 N.am      2 UNK        -0.4546 
     35 C          26.1891   -3.9623   -2.3563 C.2       1 UNK         0.5154 
     36 O          25.7636   -4.1257   -3.5048 O.2       1 UNK        -0.5181 
     37 C          26.9415    2.3316   -4.5998 C.2       5 UNK         0.5014 
     38 O          27.5089    3.4016   -4.8228 O.2       5 UNK        -0.5248 
     39 N          25.6490    2.1024   -4.8806 N.am      6 UNK        -0.4434 
     40 CA         24.7845    3.0501   -5.5895 C.3       6 UNK         0.0363 
     41 CB         23.3215    2.5842   -5.5172 C.3       6 UNK        -0.1936 
     42 C          25.2286    3.2562   -7.0489 C.2       6 UNK         0.5081 
     43 O          25.2301    4.3913   -7.5258 O.2       6 UNK        -0.5248 
     44 N          25.6217    2.1629   -7.7186 N.am      7 UNK        -0.4718 
     45 CA         26.2153    2.1763   -9.0564 C.3       7 UNK         0.0273 
     46 CB         26.2472    0.7456   -9.6188 C.3       7 UNK        -0.1935 
     47 C          27.6257    2.7881   -9.0727 C.2       7 UNK         0.5018 
     48 O          27.9465    3.5314  -10.0009 O.2       7 UNK        -0.5186 
     49 N          28.4476    2.4388   -8.0699 N.am      8 UNK        -0.4240 
     50 CA         29.8505    2.8159   -7.8353 C.3       8 UNK         0.0235 
     51 CB         30.0209    4.3393   -7.6888 C.3       8 UNK        -0.2000 
     52 C          30.8295    2.2318   -8.8678 C.2       8 UNK         0.4941 
     53 O          31.8317    1.6267   -8.4835 O.2       8 UNK        -0.5273 
     54 N          30.4926    2.3501  -10.1589 N.am      9 UNK        -0.4262 
     55 CA         31.2110    1.7962  -11.3136 C.3       9 UNK         0.0264 
     56 CB         30.5269    2.2849  -12.6009 C.3       9 UNK        -0.1955 
     57 C          31.3345    0.2586  -11.3170 C.2       9 UNK         0.5031 
     58 O          32.1199   -0.2797  -12.0981 O.2       9 UNK        -0.5390 
     59 N          30.5857   -0.4162  -10.4332 N.am      10 UNK        -0.4204 
     60 CA         30.6928   -1.8414  -10.1251 C.3       10 UNK         0.0237 
     61 CB         29.5534   -2.2286   -9.1701 C.3       10 UNK        -0.1985 
     62 C          32.0554   -2.2459   -9.5278 C.2       10 UNK         0.4970 
     63 O          32.4338   -3.4091   -9.6742 O.2       10 UNK        -0.4914 
     64 N          32.7717   -1.3055   -8.8929 N.am      11 UNK        -0.4285 
     65 CA         34.1476   -1.5123   -8.4159 C.3       11 UNK         0.1007 
     66 C          35.0649   -0.2598   -8.5040 C.2       11 UNK         0.5703 
     67 N          34.5513    0.9488   -8.7012 N.am      11 UNK        -0.7361 
     68 O          36.2839   -0.3933   -8.4230 O.2       11 UNK        -0.4986 
     69 C69        34.2081   -2.2372   -7.0428 C.3       12 UNK        -0.0947 
     70 S70        33.7535   -1.2046   -5.6083 S.3       12 UNK        -0.2240 
     71 C71        32.0135   -1.6567   -5.3457 C.3       12 UNK         0.0194 
     72 H72        27.9528   -7.9548   -4.2371 H         1 UNK         0.0906 
     73 H73        27.4471   -9.1037   -2.9971 H         1 UNK         0.0906 
     74 H74        26.2559   -8.4206   -4.1072 H         1 UNK         0.0906 
     75 H75        28.2817   -5.8888   -3.4487 H         1 UNK         0.3140 
     76 H76        27.2599   -5.0616   -0.8601 H         1 UNK         0.1085 
     77 H77        28.6916   -3.1192   -2.7166 H         1 UNK         0.0836 
     78 H78        29.5932   -4.4789   -2.1111 H         1 UNK         0.0836 
     79 H79        31.3669   -3.4758   -0.6632 H         1 UNK         0.0731 
     80 H80        31.1318   -2.1228    0.4147 H         1 UNK         0.0731 
     81 H81        31.6436   -3.0978   -3.0564 H         1 UNK         0.1312 
     82 H82        31.3155    0.8698   -4.6371 H         1 UNK         0.1406 
     83 H83        30.3645    0.1140   -0.5196 H         1 UNK         0.1631 
     84 H84        30.4652    2.6504   -3.3307 H         1 UNK         0.0717 
     85 H85        31.1759    2.6016   -1.7395 H         1 UNK         0.0717 
     86 H86        28.0019    0.1641   -2.0910 H         1 UNK         0.0934 
     87 H87        26.6820    1.2830   -2.0974 H         1 UNK         0.0934 
     88 H88        28.7767    1.3156   -4.3306 H         1 UNK         0.0739 
     89 H89        26.6241   -0.6246   -4.0323 H         1 UNK         0.3093 
     90 H90        26.9587   -1.8316   -7.3466 H         1 UNK         0.0818 
     91 H91        28.9643   -2.9311   -6.2778 H         1 UNK         0.0819 
     92 H92        28.0009   -3.2625   -4.8518 H         1 UNK         0.0819 
     93 H93        27.5776   -4.0044   -6.3894 H         1 UNK         0.0819 
     94 H94        25.5897   -2.8520   -5.0277 H         1 UNK         0.3041 
     95 H95        22.8565   -0.5927   -5.1129 H         1 UNK         0.0784 
     96 H96        22.2158   -2.0760   -7.0269 H         1 UNK         0.0793 
     97 H97        22.8032   -3.4797   -6.1452 H         1 UNK         0.0793 
     98 H98        21.4207   -2.5646   -5.5405 H         1 UNK         0.0793 
     99 H99        23.0827   -3.0054   -3.7001 H         1 UNK         0.3024 
    100 H100       24.3660   -1.6352   -0.7945 H         1 UNK         0.1171 
    101 H101       23.2084   -3.7464   -0.3490 H         1 UNK         0.0786 
    102 H102       22.2287   -2.8061   -1.4556 H         1 UNK         0.0786 
    103 H103       23.1739   -4.1711   -2.0526 H         1 UNK         0.0786 
    104 H104       26.1135   -3.0109   -0.5790 H         1 UNK         0.2977 
    105 H105       25.2525    1.2032   -4.6416 H         1 UNK         0.3127 
    106 H106       24.8582    4.0131   -5.0794 H         1 UNK         0.0770 
    107 H107       23.1637    1.6511   -6.0575 H         1 UNK         0.0814 
    108 H108       22.6583    3.3280   -5.9606 H         1 UNK         0.0814 
    109 H109       22.9995    2.4367   -4.4862 H         1 UNK         0.0814 
    110 H110       25.4894    1.2526   -7.2839 H         1 UNK         0.2983 
    111 H111       25.5807    2.7859   -9.7037 H         1 UNK         0.0947 
    112 H112       26.8560    0.0819   -9.0038 H         1 UNK         0.0806 
    113 H113       26.6625    0.7302  -10.6275 H         1 UNK         0.0806 
    114 H114       25.2449    0.3202   -9.6739 H         1 UNK         0.0806 
    115 H115       28.1079    1.7357   -7.4193 H         1 UNK         0.3000 
    116 H116       30.1108    2.3666   -6.8752 H         1 UNK         0.0850 
    117 H117       29.3705    4.7327   -6.9071 H         1 UNK         0.0810 
    118 H118       29.7933    4.8707   -8.6132 H         1 UNK         0.0810 
    119 H119       31.0464    4.5901   -7.4150 H         1 UNK         0.0810 
    120 H120       29.6306    2.8559  -10.3552 H         1 UNK         0.3040 
    121 H121       32.2266    2.1961  -11.2884 H         1 UNK         0.0766 
    122 H122       31.0511    1.9227  -13.4865 H         1 UNK         0.0812 
    123 H123       30.5165    3.3736  -12.6562 H         1 UNK         0.0812 
    124 H124       29.4955    1.9357  -12.6657 H         1 UNK         0.0812 
    125 H125       29.9724    0.1245   -9.8421 H         1 UNK         0.3205 
    126 H126       30.5666   -2.3937  -11.0585 H         1 UNK         0.0754 
    127 H127       29.5846   -3.2928   -8.9319 H         1 UNK         0.0769 
    128 H128       28.5765   -2.0237   -9.6085 H         1 UNK         0.0769 
    129 H129       29.6227   -1.6806   -8.2304 H         1 UNK         0.0769 
    130 H130       32.4000   -0.3683   -8.7964 H         1 UNK         0.2981 
    131 H131       34.6130   -2.1928   -9.1321 H         1 UNK         0.0541 
    132 H132       33.5508    1.1268   -8.6803 H         1 UNK         0.3459 
    133 H133       35.1840    1.7294   -8.7682 H         1 UNK         0.3459 
    134 H134       33.5874   -3.1338   -7.0588 H         1 UNK         0.0612 
    135 H135       35.2237   -2.5967   -6.8694 H         1 UNK         0.0612 
    136 H136       31.4001   -1.2228   -6.1373 H         1 UNK         0.0624 
    137 H137       31.8978   -2.7392   -5.4165 H         1 UNK         0.0624 
@<TRIPOS>BOND
     1    1    2 1    
     2    1   72 1    
     3    1   73 1    
     4    1   74 1    
     5    2    3 2    
     6    2    4 am   BACKBONE|DICT|INTERRES
     7    4    5 1    
     8    4   75 1    
     9    5    6 1    
    10    5   35 1    
    11    5   76 1    
    12    6    7 1    
    13    6   77 1    
    14    6   78 1    
    15    7    8 1    
    16    8    9 1    
    17    8   79 1    
    18    8   80 1    
    19    9   10 ar   
    20    9   14 ar   
    21   10   11 ar   
    22   10   81 1    
    23   11   12 ar   
    24   11   71 1    
    25   12   13 ar   
    26   12   82 1    
    27   13   14 ar   
    28   13   15 1    
    29   14   83 1    
    30   15   16 1    
    31   15   84 1    
    32   15   85 1    
    33   16   17 1    
    34   17   18 1    
    35   17   86 1    
    36   17   87 1    
    37   18   19 1    
    38   18   37 1    
    39   18   88 1    
    40   19   20 am   BACKBONE|DICT|INTERRES
    41   19   89 1    
    42   20   21 2    
    43   20   22 1    
    44   22   23 1    
    45   22   24 1    
    46   22   90 1    
    47   23   91 1    
    48   23   92 1    
    49   23   93 1    
    50   24   25 am   BACKBONE|DICT|INTERRES
    51   24   94 1    
    52   25   26 2    
    53   25   27 1    
    54   27   28 1    
    55   27   29 1    
    56   27   95 1    
    57   28   96 1    
    58   28   97 1    
    59   28   98 1    
    60   29   30 am   BACKBONE|DICT|INTERRES
    61   29   99 1    
    62   30   31 2    
    63   30   32 1    
    64   32   33 1    
    65   32   34 1    
    66   32  100 1    
    67   33  101 1    
    68   33  102 1    
    69   33  103 1    
    70   34   35 am   BACKBONE|DICT|INTERRES
    71   34  104 1    
    72   35   36 2    
    73   37   38 2    
    74   37   39 am   BACKBONE|DICT|INTERRES
    75   39   40 1    
    76   39  105 1    
    77   40   41 1    
    78   40   42 1    
    79   40  106 1    
    80   41  107 1    
    81   41  108 1    
    82   41  109 1    
    83   42   43 2    
    84   42   44 am   BACKBONE|DICT|INTERRES
    85   44   45 1    
    86   44  110 1    
    87   45   46 1    
    88   45   47 1    
    89   45  111 1    
    90   46  112 1    
    91   46  113 1    
    92   46  114 1    
    93   47   48 2    
    94   47   49 am   BACKBONE|DICT|INTERRES
    95   49   50 1    
    96   49  115 1    
    97   50   51 1    
    98   50   52 1    
    99   50  116 1    
   100   51  117 1    
   101   51  118 1    
   102   51  119 1    
   103   52   53 2    
   104   52   54 am   BACKBONE|DICT|INTERRES
   105   54   55 1    
   106   54  120 1    
   107   55   56 1    
   108   55   57 1    
   109   55  121 1    
   110   56  122 1    
   111   56  123 1    
   112   56  124 1    
   113   57   58 2    
   114   57   59 am   BACKBONE|DICT|INTERRES
   115   59   60 1    
   116   59  125 1    
   117   60   61 1    
   118   60   62 1    
   119   60  126 1    
   120   61  127 1    
   121   61  128 1    
   122   61  129 1    
   123   62   63 2    
   124   62   64 am   BACKBONE|DICT|INTERRES
   125   64   65 1    
   126   64  130 1    
   127   65   66 1    
   128   65   69 1    
   129   65  131 1    
   130   66   67 am   BACKBONE|DICT|INTERRES
   131   66   68 2    
   132   67  132 1    
   133   67  133 1    
   134   69   70 1    
   135   69  134 1    
   136   69  135 1    
   137   70   71 1    
   138   71  136 1    
   139   71  137 1    
@<TRIPOS>SUBSTRUCTURE
     1 UNK         1 GROUP             0       ****    0 ROOT    
