@<TRIPOS>MOLECULE
3R137
137   139    1
SMALL
USER_CHARGES


@<TRIPOS>ATOM
      1 CA         22.8274   -3.6752   -1.0235 C.3       0 UNK        -0.2020 
      2 C          24.2773   -3.2567   -0.8356 C.2       0 UNK         0.4855 
      3 O          24.5438   -2.1367   -0.3977 O.2       0 UNK        -0.5197 
      4 N          25.2175   -4.1543   -1.1590 N.am      1 UNK        -0.4892 
      5 CA         26.6608   -3.9266   -1.0338 C.3       1 UNK         0.0835 
      6 C6         27.4575   -5.2522   -1.1301 C.3       12 UNK        -0.0855 
      7 S7         29.0847   -5.1450   -0.3006 S.3       12 UNK        -0.2931 
      8 C8         30.2030   -5.9665   -1.4830 C.3       12 UNK         0.0378 
      9 C9         30.4099   -5.1526   -2.7530 C.ar      12 UNK        -0.0802 
     10 C10        31.3204   -4.0905   -2.7780 C.ar      12 UNK        -0.0944 
     11 C11        31.5150   -3.3402   -3.9444 C.ar      12 UNK        -0.0787 
     12 C12        30.7788   -3.6640   -5.0901 C.ar      12 UNK        -0.0862 
     13 C13        29.8629   -4.7200   -5.0743 C.ar      12 UNK        -0.0733 
     14 C14        29.6939   -5.4689   -3.9092 C.ar      12 UNK        -0.0832 
     15 C15        29.0241   -5.0347   -6.3017 C.3       12 UNK         0.0240 
     16 S16        27.4279   -4.1640   -6.2312 S.3       12 UNK        -0.2522 
     17 C17        27.9905   -2.4490   -6.4692 C.3       12 UNK        -0.0967 
     18 CA         26.8345   -1.5003   -6.8391 C.3       5 UNK         0.0660 
     19 N          25.9085   -1.2995   -5.7212 N.am      5 UNK        -0.4015 
     20 C          24.7034   -0.7232   -5.8312 C.2       4 UNK         0.4946 
     21 O          24.2531   -0.2652   -6.8826 O.2       4 UNK        -0.5353 
     22 CA         23.8658   -0.6322   -4.5488 C.3       4 UNK         0.0277 
     23 CB         23.2202   -1.9871   -4.2200 C.3       4 UNK        -0.1981 
     24 N          24.6725   -0.1702   -3.4185 N.am      4 UNK        -0.4209 
     25 C          24.9869    1.1162   -3.2073 C.2       3 UNK         0.4942 
     26 O          24.5486    2.0483   -3.8820 O.2       3 UNK        -0.5208 
     27 CA         25.9684    1.4236   -2.0629 C.3       3 UNK         0.0250 
     28 CB         25.2088    1.6430   -0.7449 C.3       3 UNK        -0.1990 
     29 N          26.9893    0.3912   -1.8699 N.am      3 UNK        -0.4232 
     30 C          27.9235    0.0582   -2.7729 C.2       2 UNK         0.4993 
     31 O          28.0258    0.5806   -3.8800 O.2       2 UNK        -0.5286 
     32 CA         28.8766   -1.0856   -2.3963 C.3       2 UNK         0.0209 
     33 CB         30.0631   -0.5432   -1.5843 C.3       2 UNK        -0.1931 
     34 N          28.2334   -2.1616   -1.6408 N.am      2 UNK        -0.4546 
     35 C          27.1618   -2.8622   -2.0345 C.2       1 UNK         0.5154 
     36 O          26.5723   -2.6761   -3.1049 O.2       1 UNK        -0.5181 
     37 C          27.3844   -0.1900   -7.4366 C.2       5 UNK         0.5014 
     38 O          27.7135   -0.1900   -8.6229 O.2       5 UNK        -0.5248 
     39 N          27.4535    0.8968   -6.6508 N.am      6 UNK        -0.4434 
     40 CA         27.9307    2.2353   -7.0371 C.3       6 UNK         0.0363 
     41 CB         27.7880    3.1889   -5.8380 C.3       6 UNK        -0.1936 
     42 C          27.2736    2.8603   -8.2845 C.2       6 UNK         0.5081 
     43 O          27.8326    3.8004   -8.8500 O.2       6 UNK        -0.5248 
     44 N          26.1201    2.3294   -8.7108 N.am      7 UNK        -0.4718 
     45 CA         25.4731    2.6468   -9.9841 C.3       7 UNK         0.0273 
     46 CB         24.0693    2.0202   -9.9932 C.3       7 UNK        -0.1935 
     47 C          26.2734    2.1911  -11.2234 C.2       7 UNK         0.5018 
     48 O          26.0271    2.7240  -12.3068 O.2       7 UNK        -0.5186 
     49 N          27.1925    1.2259  -11.0633 N.am      8 UNK        -0.4240 
     50 CA         28.0120    0.6737  -12.1455 C.3       8 UNK         0.0235 
     51 CB         27.3633   -0.6170  -12.6753 C.3       8 UNK        -0.2000 
     52 C          29.4714    0.4190  -11.7353 C.2       8 UNK         0.4941 
     53 O          30.3636    0.6521  -12.5526 O.2       8 UNK        -0.5273 
     54 N          29.7071   -0.0721  -10.5112 N.am      9 UNK        -0.4262 
     55 CA         31.0385   -0.3957   -9.9960 C.3       9 UNK         0.0264 
     56 CB         30.9118   -1.4211   -8.8573 C.3       9 UNK        -0.1955 
     57 C          31.7485    0.8617   -9.4816 C.2       9 UNK         0.5031 
     58 O          31.1191    1.6908   -8.8208 O.2       9 UNK        -0.5390 
     59 N          33.0630    0.9436   -9.7265 N.am      10 UNK        -0.4204 
     60 CA         33.9303    2.0391   -9.2774 C.3       10 UNK         0.0237 
     61 CB         35.3269    1.8713   -9.8983 C.3       10 UNK        -0.1985 
     62 C          34.0335    2.1682   -7.7461 C.2       10 UNK         0.4970 
     63 O          34.2361    3.2781   -7.2523 O.2       10 UNK        -0.4914 
     64 N          33.8823    1.0464   -7.0294 N.am      11 UNK        -0.4285 
     65 CA         33.8104    0.9987   -5.5629 C.3       11 UNK         0.1007 
     66 C          32.4325    1.4131   -4.9652 C.2       11 UNK         0.5703 
     67 N          31.3916    1.6407   -5.7589 N.am      11 UNK        -0.7361 
     68 O          32.3120    1.5434   -3.7501 O.2       11 UNK        -0.4986 
     69 C69        34.3270   -0.3565   -5.0077 C.3       12 UNK        -0.0947 
     70 S70        33.3330   -1.8129   -5.4899 S.3       12 UNK        -0.2240 
     71 C71        32.4713   -2.1490   -3.9154 C.3       12 UNK         0.0194 
     72 H72        22.1908   -2.8013   -1.1584 H         1 UNK         0.0906 
     73 H73        22.7093   -4.3177   -1.8959 H         1 UNK         0.0906 
     74 H74        22.4758   -4.2155   -0.1450 H         1 UNK         0.0906 
     75 H75        24.9420   -5.0434   -1.5511 H         1 UNK         0.3140 
     76 H76        26.8084   -3.5207   -0.0298 H         1 UNK         0.1085 
     77 H77        26.9105   -6.0523   -0.6285 H         1 UNK         0.0836 
     78 H78        27.5581   -5.5723   -2.1670 H         1 UNK         0.0836 
     79 H79        31.1670   -6.1277   -0.9980 H         1 UNK         0.0731 
     80 H80        29.8148   -6.9589   -1.7180 H         1 UNK         0.0731 
     81 H81        31.8679   -3.8405   -1.8794 H         1 UNK         0.1312 
     82 H82        30.8966   -3.0794   -5.9914 H         1 UNK         0.1406 
     83 H83        28.9864   -6.2869   -3.9007 H         1 UNK         0.1631 
     84 H84        28.8397   -6.1084   -6.3622 H         1 UNK         0.0717 
     85 H85        29.5574   -4.7652   -7.2148 H         1 UNK         0.0717 
     86 H86        28.4946   -2.1019   -5.5661 H         1 UNK         0.0934 
     87 H87        28.7394   -2.4663   -7.2612 H         1 UNK         0.0934 
     88 H88        26.2625   -1.9719   -7.6417 H         1 UNK         0.0739 
     89 H89        26.1875   -1.6942   -4.8273 H         1 UNK         0.3093 
     90 H90        23.0612    0.0849   -4.7272 H         1 UNK         0.0818 
     91 H91        22.5367   -1.8981   -3.3768 H         1 UNK         0.0819 
     92 H92        22.6395   -2.3576   -5.0659 H         1 UNK         0.0819 
     93 H93        23.9636   -2.7473   -3.9774 H         1 UNK         0.0819 
     94 H94        25.0964   -0.8790   -2.8330 H         1 UNK         0.3041 
     95 H95        26.4851    2.3512   -2.3188 H         1 UNK         0.0784 
     96 H96        24.4545    2.4236   -0.8545 H         1 UNK         0.0793 
     97 H97        24.6956    0.7370   -0.4192 H         1 UNK         0.0793 
     98 H98        25.8812    1.9548    0.0545 H         1 UNK         0.0793 
     99 H99        26.9664   -0.1150   -0.9964 H         1 UNK         0.3024 
    100 H100       29.2553   -1.5166   -3.3249 H         1 UNK         0.1171 
    101 H101       30.5749    0.2522   -2.1271 H         1 UNK         0.0786 
    102 H102       30.7976   -1.3227   -1.3822 H         1 UNK         0.0786 
    103 H103       29.7439   -0.1283   -0.6275 H         1 UNK         0.0786 
    104 H104       28.6695   -2.4146   -0.7652 H         1 UNK         0.2977 
    105 H105       27.2712    0.7716   -5.6583 H         1 UNK         0.3127 
    106 H106       28.9913    2.1365   -7.2705 H         1 UNK         0.0770 
    107 H107       26.7580    3.2335   -5.4817 H         1 UNK         0.0814 
    108 H108       28.4188    2.8825   -5.0048 H         1 UNK         0.0814 
    109 H109       28.0873    4.2044   -6.1017 H         1 UNK         0.0814 
    110 H110       25.7240    1.5668   -8.1773 H         1 UNK         0.2983 
    111 H111       25.3676    3.7320  -10.0477 H         1 UNK         0.0947 
    112 H112       23.5412    2.2548  -10.9186 H         1 UNK         0.0806 
    113 H113       23.4611    2.3960   -9.1701 H         1 UNK         0.0806 
    114 H114       24.1130    0.9334   -9.9079 H         1 UNK         0.0806 
    115 H115       27.3357    0.8393  -10.1333 H         1 UNK         0.3000 
    116 H116       28.0533    1.3910  -12.9683 H         1 UNK         0.0850 
    117 H117       27.9596   -1.0553  -13.4768 H         1 UNK         0.0810 
    118 H118       26.3699   -0.4230  -13.0800 H         1 UNK         0.0810 
    119 H119       27.2648   -1.3683  -11.8906 H         1 UNK         0.0810 
    120 H120       28.9365   -0.1856   -9.8541 H         1 UNK         0.3040 
    121 H121       31.6263   -0.8442  -10.8000 H         1 UNK         0.0766 
    122 H122       31.8935   -1.7647   -8.5287 H         1 UNK         0.0812 
    123 H123       30.3500   -2.3003   -9.1728 H         1 UNK         0.0812 
    124 H124       30.4136   -0.9913   -7.9875 H         1 UNK         0.0812 
    125 H125       33.5031    0.2124  -10.2674 H         1 UNK         0.3205 
    126 H126       33.5004    2.9710   -9.6509 H         1 UNK         0.0754 
    127 H127       35.9863    2.6886   -9.6024 H         1 UNK         0.0769 
    128 H128       35.2808    1.8747  -10.9876 H         1 UNK         0.0769 
    129 H129       35.8008    0.9405   -9.5836 H         1 UNK         0.0769 
    130 H130       33.7140    0.1751   -7.5086 H         1 UNK         0.2981 
    131 H131       34.5063    1.7524   -5.1895 H         1 UNK         0.0541 
    132 H132       31.4703    1.5866   -6.7672 H         1 UNK         0.3459 
    133 H133       30.5140    1.8940   -5.3363 H         1 UNK         0.3459 
    134 H134       34.4078   -0.3111   -3.9202 H         1 UNK         0.0612 
    135 H135       35.3452   -0.5250   -5.3613 H         1 UNK         0.0612 
    136 H136       31.9034   -1.2623   -3.6377 H         1 UNK         0.0624 
    137 H137       33.2231   -2.2978   -3.1387 H         1 UNK         0.0624 
@<TRIPOS>BOND
     1    1    2 1    
     2    1   72 1    
     3    1   73 1    
     4    1   74 1    
     5    2    3 2    
     6    2    4 am   BACKBONE|DICT|INTERRES
     7    4    5 1    
     8    4   75 1    
     9    5    6 1    
    10    5   35 1    
    11    5   76 1    
    12    6    7 1    
    13    6   77 1    
    14    6   78 1    
    15    7    8 1    
    16    8    9 1    
    17    8   79 1    
    18    8   80 1    
    19    9   10 ar   
    20    9   14 ar   
    21   10   11 ar   
    22   10   81 1    
    23   11   12 ar   
    24   11   71 1    
    25   12   13 ar   
    26   12   82 1    
    27   13   14 ar   
    28   13   15 1    
    29   14   83 1    
    30   15   16 1    
    31   15   84 1    
    32   15   85 1    
    33   16   17 1    
    34   17   18 1    
    35   17   86 1    
    36   17   87 1    
    37   18   19 1    
    38   18   37 1    
    39   18   88 1    
    40   19   20 am   BACKBONE|DICT|INTERRES
    41   19   89 1    
    42   20   21 2    
    43   20   22 1    
    44   22   23 1    
    45   22   24 1    
    46   22   90 1    
    47   23   91 1    
    48   23   92 1    
    49   23   93 1    
    50   24   25 am   BACKBONE|DICT|INTERRES
    51   24   94 1    
    52   25   26 2    
    53   25   27 1    
    54   27   28 1    
    55   27   29 1    
    56   27   95 1    
    57   28   96 1    
    58   28   97 1    
    59   28   98 1    
    60   29   30 am   BACKBONE|DICT|INTERRES
    61   29   99 1    
    62   30   31 2    
    63   30   32 1    
    64   32   33 1    
    65   32   34 1    
    66   32  100 1    
    67   33  101 1    
    68   33  102 1    
    69   33  103 1    
    70   34   35 am   BACKBONE|DICT|INTERRES
    71   34  104 1    
    72   35   36 2    
    73   37   38 2    
    74   37   39 am   BACKBONE|DICT|INTERRES
    75   39   40 1    
    76   39  105 1    
    77   40   41 1    
    78   40   42 1    
    79   40  106 1    
    80   41  107 1    
    81   41  108 1    
    82   41  109 1    
    83   42   43 2    
    84   42   44 am   BACKBONE|DICT|INTERRES
    85   44   45 1    
    86   44  110 1    
    87   45   46 1    
    88   45   47 1    
    89   45  111 1    
    90   46  112 1    
    91   46  113 1    
    92   46  114 1    
    93   47   48 2    
    94   47   49 am   BACKBONE|DICT|INTERRES
    95   49   50 1    
    96   49  115 1    
    97   50   51 1    
    98   50   52 1    
    99   50  116 1    
   100   51  117 1    
   101   51  118 1    
   102   51  119 1    
   103   52   53 2    
   104   52   54 am   BACKBONE|DICT|INTERRES
   105   54   55 1    
   106   54  120 1    
   107   55   56 1    
   108   55   57 1    
   109   55  121 1    
   110   56  122 1    
   111   56  123 1    
   112   56  124 1    
   113   57   58 2    
   114   57   59 am   BACKBONE|DICT|INTERRES
   115   59   60 1    
   116   59  125 1    
   117   60   61 1    
   118   60   62 1    
   119   60  126 1    
   120   61  127 1    
   121   61  128 1    
   122   61  129 1    
   123   62   63 2    
   124   62   64 am   BACKBONE|DICT|INTERRES
   125   64   65 1    
   126   64  130 1    
   127   65   66 1    
   128   65   69 1    
   129   65  131 1    
   130   66   67 am   BACKBONE|DICT|INTERRES
   131   66   68 2    
   132   67  132 1    
   133   67  133 1    
   134   69   70 1    
   135   69  134 1    
   136   69  135 1    
   137   70   71 1    
   138   71  136 1    
   139   71  137 1    
@<TRIPOS>SUBSTRUCTURE
     1 UNK         1 GROUP             0       ****    0 ROOT    
