@<TRIPOS>MOLECULE
3R137
137   139    1
SMALL
USER_CHARGES


@<TRIPOS>ATOM
      1 CA         27.1666   -1.8883    2.5659 C.3       0 UNK        -0.2020 
      2 C          27.2701   -1.8910    1.0489 C.2       0 UNK         0.4855 
      3 O          27.2242   -0.8307    0.4276 O.2       0 UNK        -0.5197 
      4 N          27.3863   -3.0759    0.4378 N.am      1 UNK        -0.4892 
      5 CA         27.5845   -3.2899   -1.0053 C.3       1 UNK         0.0835 
      6 C6         28.3307   -4.6218   -1.2904 C.3       12 UNK        -0.0855 
      7 S7         29.8813   -4.7856   -0.3367 S.3       12 UNK        -0.2931 
      8 C8         31.1581   -4.4892   -1.6081 C.3       12 UNK         0.0378 
      9 C9         31.1573   -3.0818   -2.2056 C.ar      12 UNK        -0.0802 
     10 C10        31.5085   -2.9152   -3.5477 C.ar      12 UNK        -0.0944 
     11 C11        31.5594   -1.6413   -4.1314 C.ar      12 UNK        -0.0787 
     12 C12        31.2469   -0.5282   -3.3435 C.ar      12 UNK        -0.0862 
     13 C13        30.8691   -0.6745   -2.0036 C.ar      12 UNK        -0.0733 
     14 C14        30.8542   -1.9523   -1.4375 C.ar      12 UNK        -0.0832 
     15 C15        30.4934    0.5294   -1.1396 C.3       12 UNK         0.0240 
     16 S16        29.4224    1.7601   -1.9652 S.3       12 UNK        -0.2522 
     17 C17        28.0136    0.7522   -2.5448 C.3       12 UNK        -0.0967 
     18 CA         27.9848    0.6760   -4.0931 C.3       5 UNK         0.0660 
     19 N          27.5639   -0.6397   -4.5839 N.am      5 UNK        -0.4015 
     20 C          27.9019   -1.1305   -5.7853 C.2       4 UNK         0.4946 
     21 O          28.5781   -0.5165   -6.6064 O.2       4 UNK        -0.5353 
     22 CA         27.3728   -2.5252   -6.1497 C.3       4 UNK         0.0277 
     23 CB         28.2505   -3.6178   -5.5195 C.3       4 UNK        -0.1981 
     24 N          25.9754   -2.7000   -5.7495 N.am      4 UNK        -0.4209 
     25 C          24.9515   -2.0817   -6.3600 C.2       3 UNK         0.4942 
     26 O          25.0802   -1.3773   -7.3614 O.2       3 UNK        -0.5208 
     27 CA         23.5486   -2.2413   -5.7449 C.3       3 UNK         0.0250 
     28 CB         22.7914   -3.3899   -6.4302 C.3       3 UNK        -0.1990 
     29 N          23.5398   -2.4545   -4.2951 N.am      3 UNK        -0.4232 
     30 C          24.0783   -1.6377   -3.3790 C.2       2 UNK         0.4993 
     31 O          24.6705   -0.5933   -3.6558 O.2       2 UNK        -0.5286 
     32 CA         24.0008   -2.0781   -1.9067 C.3       2 UNK         0.0209 
     33 CB         23.0796   -3.2936   -1.6526 C.3       2 UNK        -0.1931 
     34 N          25.3354   -2.3329   -1.3534 N.am      2 UNK        -0.4546 
     35 C          26.2758   -3.1666   -1.8237 C.2       1 UNK         0.5154 
     36 O          26.1402   -3.8194   -2.8611 O.2       1 UNK        -0.5181 
     37 C          27.1663    1.8196   -4.7254 C.2       5 UNK         0.5014 
     38 O          27.7000    2.9117   -4.9217 O.2       5 UNK        -0.5248 
     39 N          25.9059    1.5449   -5.0933 N.am      6 UNK        -0.4434 
     40 CA         25.0367    2.4495   -5.8544 C.3       6 UNK         0.0363 
     41 CB         23.6346    1.8302   -5.9616 C.3       6 UNK        -0.1936 
     42 C          25.5743    2.8020   -7.2574 C.2       6 UNK         0.5081 
     43 O          25.1822    3.8318   -7.8068 O.2       6 UNK        -0.5248 
     44 N          26.4647    1.9630   -7.8014 N.am      7 UNK        -0.4718 
     45 CA         27.1647    2.1651   -9.0666 C.3       7 UNK         0.0273 
     46 CB         26.5372    1.2563  -10.1408 C.3       7 UNK        -0.1935 
     47 C          28.6663    1.9034   -8.8708 C.2       7 UNK         0.5018 
     48 O          29.2718    1.2053   -9.6861 O.2       7 UNK        -0.5186 
     49 N          29.2481    2.4584   -7.7937 N.am      8 UNK        -0.4240 
     50 CA         30.6232    2.2087   -7.3288 C.3       8 UNK         0.0235 
     51 CB         30.9053    3.0347   -6.0625 C.3       8 UNK        -0.2000 
     52 C          31.7452    2.4309   -8.3591 C.2       8 UNK         0.4941 
     53 O          32.8008    1.8100   -8.2325 O.2       8 UNK        -0.5273 
     54 N          31.5010    3.2838   -9.3641 N.am      9 UNK        -0.4262 
     55 CA         32.3906    3.4992  -10.5089 C.3       9 UNK         0.0264 
     56 CB         31.8874    4.7032  -11.3216 C.3       9 UNK        -0.1955 
     57 C          32.5355    2.2603  -11.4156 C.2       9 UNK         0.5031 
     58 O          33.5781    2.1085  -12.0544 O.2       9 UNK        -0.5390 
     59 N          31.5033    1.4067  -11.4543 N.am      10 UNK        -0.4204 
     60 CA         31.4931    0.1298  -12.1675 C.3       10 UNK         0.0237 
     61 CB         30.1825    0.0022  -12.9627 C.3       10 UNK        -0.1985 
     62 C          31.6459   -1.0473  -11.1924 C.2       10 UNK         0.4970 
     63 O          32.3709   -1.9916  -11.5068 O.2       10 UNK        -0.4914 
     64 N          30.9638   -0.9732  -10.0395 N.am      11 UNK        -0.4285 
     65 CA         30.9040   -2.0145   -9.0017 C.3       11 UNK         0.1007 
     66 C          30.2002   -3.3284   -9.4702 C.2       11 UNK         0.5703 
     67 N          29.2684   -3.2587  -10.4147 N.am      11 UNK        -0.7361 
     68 O          30.4779   -4.4192   -8.9788 O.2       11 UNK        -0.4986 
     69 C69        32.2776   -2.2121   -8.2945 C.3       12 UNK        -0.0947 
     70 S70        32.1330   -2.9109   -6.6156 S.3       12 UNK        -0.2240 
     71 C71        31.9422   -1.4078   -5.5969 C.3       12 UNK         0.0194 
     72 H72        26.2235   -1.4398    2.8771 H         1 UNK         0.0906 
     73 H73        27.2177   -2.8950    2.9802 H         1 UNK         0.0906 
     74 H74        27.9799   -1.3036    2.9946 H         1 UNK         0.0906 
     75 H75        27.4015   -3.9173    0.9975 H         1 UNK         0.3140 
     76 H76        28.2185   -2.4846   -1.3747 H         1 UNK         0.1085 
     77 H77        28.5591   -4.7193   -2.3531 H         1 UNK         0.0836 
     78 H78        27.6930   -5.4724   -1.0423 H         1 UNK         0.0836 
     79 H79        31.0380   -5.2371   -2.3938 H         1 UNK         0.0731 
     80 H80        32.1367   -4.6692   -1.1617 H         1 UNK         0.0731 
     81 H81        31.7534   -3.7935   -4.1266 H         1 UNK         0.1312 
     82 H82        31.2872    0.4601   -3.7806 H         1 UNK         0.1406 
     83 H83        30.5944   -2.0690   -0.3941 H         1 UNK         0.1631 
     84 H84        31.4092    1.0253   -0.8161 H         1 UNK         0.0717 
     85 H85        29.9837    0.2013   -0.2319 H         1 UNK         0.0717 
     86 H86        28.1082   -0.2434   -2.1127 H         1 UNK         0.0934 
     87 H87        27.0839    1.1531   -2.1354 H         1 UNK         0.0934 
     88 H88        29.0052    0.8118   -4.4554 H         1 UNK         0.0739 
     89 H89        26.9152   -1.1565   -4.0077 H         1 UNK         0.3093 
     90 H90        27.4323   -2.6324   -7.2354 H         1 UNK         0.0818 
     91 H91        29.2699   -3.5597   -5.9021 H         1 UNK         0.0819 
     92 H92        27.8754   -4.6150   -5.7495 H         1 UNK         0.0819 
     93 H93        28.3088   -3.5197   -4.4359 H         1 UNK         0.0819 
     94 H94        25.7979   -3.2486   -4.9146 H         1 UNK         0.3041 
     95 H95        23.0040   -1.3150   -5.9358 H         1 UNK         0.0784 
     96 H96        22.7577   -3.2449   -7.5111 H         1 UNK         0.0793 
     97 H97        23.2670   -4.3541   -6.2455 H         1 UNK         0.0793 
     98 H98        21.7600   -3.4505   -6.0822 H         1 UNK         0.0793 
     99 H99        23.1077   -3.3067   -3.9686 H         1 UNK         0.3024 
    100 H100       23.5890   -1.2271   -1.3614 H         1 UNK         0.1171 
    101 H101       23.0014   -3.5028   -0.5856 H         1 UNK         0.0786 
    102 H102       22.0664   -3.1063   -2.0115 H         1 UNK         0.0786 
    103 H103       23.4456   -4.2011   -2.1345 H         1 UNK         0.0786 
    104 H104       25.5936   -1.7775   -0.5456 H         1 UNK         0.2977 
    105 H105       25.5002    0.6580   -4.8026 H         1 UNK         0.3127 
    106 H106       24.9595    3.3813   -5.2905 H         1 UNK         0.0770 
    107 H107       23.6469    0.9172   -6.5568 H         1 UNK         0.0814 
    108 H108       22.9401    2.5208   -6.4418 H         1 UNK         0.0814 
    109 H109       23.2266    1.5891   -4.9798 H         1 UNK         0.0814 
    110 H110       26.7386    1.1417   -7.2762 H         1 UNK         0.2983 
    111 H111       27.0710    3.2028   -9.3937 H         1 UNK         0.0947 
    112 H112       27.0196    1.3986  -11.1088 H         1 UNK         0.0806 
    113 H113       25.4773    1.4738  -10.2726 H         1 UNK         0.0806 
    114 H114       26.6318    0.2018   -9.8772 H         1 UNK         0.0806 
    115 H115       28.6610    2.9924   -7.1660 H         1 UNK         0.3000 
    116 H116       30.6660    1.1538   -7.0597 H         1 UNK         0.0850 
    117 H117       31.9350    2.9026   -5.7267 H         1 UNK         0.0810 
    118 H118       30.2670    2.7313   -5.2348 H         1 UNK         0.0810 
    119 H119       30.7520    4.1007   -6.2338 H         1 UNK         0.0810 
    120 H120       30.6126    3.7634   -9.3766 H         1 UNK         0.3040 
    121 H121       33.3830    3.7382  -10.1205 H         1 UNK         0.0766 
    122 H122       31.8565    5.6081  -10.7144 H         1 UNK         0.0812 
    123 H123       30.8878    4.5315  -11.7228 H         1 UNK         0.0812 
    124 H124       32.5469    4.9054  -12.1669 H         1 UNK         0.0812 
    125 H125       30.6993    1.5900  -10.8595 H         1 UNK         0.3205 
    126 H126       32.3227    0.0843  -12.8764 H         1 UNK         0.0754 
    127 H127       30.1404   -0.9480  -13.4971 H         1 UNK         0.0769 
    128 H128       30.0946    0.7953  -13.7053 H         1 UNK         0.0769 
    129 H129       29.3059    0.0539  -12.3153 H         1 UNK         0.0769 
    130 H130       30.3518   -0.1742   -9.8832 H         1 UNK         0.2981 
    131 H131       30.2251   -1.6010   -8.2583 H         1 UNK         0.0541 
    132 H132       29.0185   -2.3736  -10.8245 H         1 UNK         0.3459 
    133 H133       28.8120   -4.1041  -10.7182 H         1 UNK         0.3459 
    134 H134       32.9255   -2.8585   -8.8884 H         1 UNK         0.0612 
    135 H135       32.8007   -1.2575   -8.2133 H         1 UNK         0.0612 
    136 H136       32.8702   -0.8359   -5.6373 H         1 UNK         0.0624 
    137 H137       31.1717   -0.7904   -6.0546 H         1 UNK         0.0624 
@<TRIPOS>BOND
     1    1    2 1    
     2    1   72 1    
     3    1   73 1    
     4    1   74 1    
     5    2    3 2    
     6    2    4 am   BACKBONE|DICT|INTERRES
     7    4    5 1    
     8    4   75 1    
     9    5    6 1    
    10    5   35 1    
    11    5   76 1    
    12    6    7 1    
    13    6   77 1    
    14    6   78 1    
    15    7    8 1    
    16    8    9 1    
    17    8   79 1    
    18    8   80 1    
    19    9   10 ar   
    20    9   14 ar   
    21   10   11 ar   
    22   10   81 1    
    23   11   12 ar   
    24   11   71 1    
    25   12   13 ar   
    26   12   82 1    
    27   13   14 ar   
    28   13   15 1    
    29   14   83 1    
    30   15   16 1    
    31   15   84 1    
    32   15   85 1    
    33   16   17 1    
    34   17   18 1    
    35   17   86 1    
    36   17   87 1    
    37   18   19 1    
    38   18   37 1    
    39   18   88 1    
    40   19   20 am   BACKBONE|DICT|INTERRES
    41   19   89 1    
    42   20   21 2    
    43   20   22 1    
    44   22   23 1    
    45   22   24 1    
    46   22   90 1    
    47   23   91 1    
    48   23   92 1    
    49   23   93 1    
    50   24   25 am   BACKBONE|DICT|INTERRES
    51   24   94 1    
    52   25   26 2    
    53   25   27 1    
    54   27   28 1    
    55   27   29 1    
    56   27   95 1    
    57   28   96 1    
    58   28   97 1    
    59   28   98 1    
    60   29   30 am   BACKBONE|DICT|INTERRES
    61   29   99 1    
    62   30   31 2    
    63   30   32 1    
    64   32   33 1    
    65   32   34 1    
    66   32  100 1    
    67   33  101 1    
    68   33  102 1    
    69   33  103 1    
    70   34   35 am   BACKBONE|DICT|INTERRES
    71   34  104 1    
    72   35   36 2    
    73   37   38 2    
    74   37   39 am   BACKBONE|DICT|INTERRES
    75   39   40 1    
    76   39  105 1    
    77   40   41 1    
    78   40   42 1    
    79   40  106 1    
    80   41  107 1    
    81   41  108 1    
    82   41  109 1    
    83   42   43 2    
    84   42   44 am   BACKBONE|DICT|INTERRES
    85   44   45 1    
    86   44  110 1    
    87   45   46 1    
    88   45   47 1    
    89   45  111 1    
    90   46  112 1    
    91   46  113 1    
    92   46  114 1    
    93   47   48 2    
    94   47   49 am   BACKBONE|DICT|INTERRES
    95   49   50 1    
    96   49  115 1    
    97   50   51 1    
    98   50   52 1    
    99   50  116 1    
   100   51  117 1    
   101   51  118 1    
   102   51  119 1    
   103   52   53 2    
   104   52   54 am   BACKBONE|DICT|INTERRES
   105   54   55 1    
   106   54  120 1    
   107   55   56 1    
   108   55   57 1    
   109   55  121 1    
   110   56  122 1    
   111   56  123 1    
   112   56  124 1    
   113   57   58 2    
   114   57   59 am   BACKBONE|DICT|INTERRES
   115   59   60 1    
   116   59  125 1    
   117   60   61 1    
   118   60   62 1    
   119   60  126 1    
   120   61  127 1    
   121   61  128 1    
   122   61  129 1    
   123   62   63 2    
   124   62   64 am   BACKBONE|DICT|INTERRES
   125   64   65 1    
   126   64  130 1    
   127   65   66 1    
   128   65   69 1    
   129   65  131 1    
   130   66   67 am   BACKBONE|DICT|INTERRES
   131   66   68 2    
   132   67  132 1    
   133   67  133 1    
   134   69   70 1    
   135   69  134 1    
   136   69  135 1    
   137   70   71 1    
   138   71  136 1    
   139   71  137 1    
@<TRIPOS>SUBSTRUCTURE
     1 UNK         1 GROUP             0       ****    0 ROOT    
