@<TRIPOS>MOLECULE
3R137
137   139    1
SMALL
USER_CHARGES


@<TRIPOS>ATOM
      1 CA         25.9428   -6.3404   -3.1339 C.3       0 UNK        -0.2020 
      2 C          25.8785   -5.7442   -1.7359 C.2       0 UNK         0.4855 
      3 O          25.2070   -6.2957   -0.8643 O.2       0 UNK        -0.5197 
      4 N          26.5717   -4.6191   -1.5146 N.am      1 UNK        -0.4892 
      5 CA         26.6285   -3.9103   -0.2282 C.3       1 UNK         0.0835 
      6 C6         27.9282   -3.0758   -0.0961 C.3       12 UNK        -0.0855 
      7 S7         28.1313   -1.7595   -1.3540 S.3       12 UNK        -0.2931 
      8 C8         29.9528   -1.7145   -1.5275 C.3       12 UNK         0.0378 
      9 C9         30.4567   -2.2958   -2.8469 C.ar      12 UNK        -0.0802 
     10 C10        31.5282   -1.6845   -3.5055 C.ar      12 UNK        -0.0944 
     11 C11        31.9936   -2.1738   -4.7315 C.ar      12 UNK        -0.0787 
     12 C12        31.3750   -3.2944   -5.2986 C.ar      12 UNK        -0.0862 
     13 C13        30.3216   -3.9352   -4.6378 C.ar      12 UNK        -0.0733 
     14 C14        29.8823   -3.4405   -3.4072 C.ar      12 UNK        -0.0832 
     15 C15        29.6789   -5.1860   -5.2251 C.3       12 UNK         0.0240 
     16 S16        28.5330   -4.8330   -6.5994 S.3       12 UNK        -0.2522 
     17 C17        27.2509   -3.7786   -5.8310 C.3       12 UNK        -0.0967 
     18 CA         26.9219   -2.5244   -6.6785 C.3       5 UNK         0.0660 
     19 N          25.7102   -1.8455   -6.2077 N.am      5 UNK        -0.4015 
     20 C          25.0686   -0.8841   -6.8888 C.2       4 UNK         0.4946 
     21 O          25.3947   -0.5062   -8.0135 O.2       4 UNK        -0.5353 
     22 CA         23.8931   -0.1930   -6.1770 C.3       4 UNK         0.0277 
     23 CB         22.6016   -1.0089   -6.3450 C.3       4 UNK        -0.1981 
     24 N          24.1336    0.0571   -4.7523 N.am      4 UNK        -0.4209 
     25 C          25.1360    0.7872   -4.2466 C.2       3 UNK         0.4942 
     26 O          25.9883    1.3336   -4.9454 O.2       3 UNK        -0.5208 
     27 CA         25.2444    0.9126   -2.7144 C.3       3 UNK         0.0250 
     28 CB         24.5877    2.2176   -2.2255 C.3       3 UNK        -0.1990 
     29 N          24.7692   -0.2504   -1.9449 N.am      3 UNK        -0.4232 
     30 C          23.5237   -0.7384   -1.8258 C.2       2 UNK         0.4993 
     31 O          22.5512   -0.2670   -2.4165 O.2       2 UNK        -0.5286 
     32 CA         23.3467   -1.9920   -0.9497 C.3       2 UNK         0.0209 
     33 CB         22.1459   -2.8486   -1.3956 C.3       2 UNK        -0.1931 
     34 N          24.5536   -2.8209   -0.9802 N.am      2 UNK        -0.4546 
     35 C          25.3687   -3.0606    0.0553 C.2       1 UNK         0.5154 
     36 O          25.1724   -2.6286    1.1921 O.2       1 UNK        -0.5181 
     37 C          28.1129   -1.5491   -6.7830 C.2       5 UNK         0.5014 
     38 O          28.8236   -1.5781   -7.7874 O.2       5 UNK        -0.5248 
     39 N          28.2763   -0.6690   -5.7831 N.am      6 UNK        -0.4434 
     40 CA         29.3134    0.3639   -5.7706 C.3       6 UNK         0.0363 
     41 CB         29.3627    1.0584   -4.4001 C.3       6 UNK        -0.1936 
     42 C          29.1259    1.3908   -6.8961 C.2       6 UNK         0.5081 
     43 O          30.0974    1.7402   -7.5659 O.2       6 UNK        -0.5248 
     44 N          27.8736    1.8168   -7.1121 N.am      7 UNK        -0.4718 
     45 CA         27.4694    2.7013   -8.2059 C.3       7 UNK         0.0273 
     46 CB         26.0015    3.1151   -8.0172 C.3       7 UNK        -0.1935 
     47 C          27.6913    2.0762   -9.5941 C.2       7 UNK         0.5018 
     48 O          28.1752    2.7678  -10.4903 O.2       7 UNK        -0.5186 
     49 N          27.3599    0.7845   -9.7417 N.am      8 UNK        -0.4240 
     50 CA         27.5844    0.0042  -10.9614 C.3       8 UNK         0.0235 
     51 CB         26.8371   -1.3360  -10.8697 C.3       8 UNK        -0.2000 
     52 C          29.0760   -0.2229  -11.2587 C.2       8 UNK         0.4941 
     53 O          29.4886   -0.0745  -12.4098 O.2       8 UNK        -0.5273 
     54 N          29.8566   -0.5680  -10.2245 N.am      9 UNK        -0.4262 
     55 CA         31.3072   -0.7578  -10.3061 C.3       9 UNK         0.0264 
     56 CB         31.8025   -1.4535   -9.0269 C.3       9 UNK        -0.1955 
     57 C          32.0816    0.5525  -10.5282 C.2       9 UNK         0.5031 
     58 O          33.1451    0.5182  -11.1491 O.2       9 UNK        -0.5390 
     59 N          31.5503    1.6646   -9.9971 N.am      10 UNK        -0.4204 
     60 CA         32.1442    3.0060   -9.9431 C.3       10 UNK         0.0237 
     61 CB         32.3146    3.6030  -11.3564 C.3       10 UNK        -0.1985 
     62 C          33.4366    3.0413   -9.1022 C.2       10 UNK         0.4970 
     63 O          34.3561    3.8017   -9.4123 O.2       10 UNK        -0.4914 
     64 N          33.4834    2.2031   -8.0599 N.am      11 UNK        -0.4285 
     65 CA         34.5961    2.0840   -7.1116 C.3       11 UNK         0.1007 
     66 C          34.6700    3.2642   -6.1016 C.2       11 UNK         0.5703 
     67 N          35.8103    3.4452   -5.4482 N.am      11 UNK        -0.7361 
     68 O          33.7116    4.0064   -5.8910 O.2       11 UNK        -0.4986 
     69 C69        34.5964    0.6935   -6.4194 C.3       12 UNK        -0.0947 
     70 S70        33.0350    0.2849   -5.5695 S.3       12 UNK        -0.2240 
     71 C71        33.1901   -1.5250   -5.4222 C.3       12 UNK         0.0194 
     72 H72        24.9960   -6.1896   -3.6518 H         1 UNK         0.0906 
     73 H73        26.7368   -5.8948   -3.7310 H         1 UNK         0.0906 
     74 H74        26.1316   -7.4122   -3.0762 H         1 UNK         0.0906 
     75 H75        27.0947   -4.1920   -2.2632 H         1 UNK         0.3140 
     76 H76        26.6552   -4.6637    0.5630 H         1 UNK         0.1085 
     77 H77        27.9873   -2.6166    0.8928 H         1 UNK         0.0836 
     78 H78        28.7805   -3.7551   -0.1500 H         1 UNK         0.0836 
     79 H79        30.2619   -0.6717   -1.4415 H         1 UNK         0.0731 
     80 H80        30.4344   -2.2363   -0.6999 H         1 UNK         0.0731 
     81 H81        32.0017   -0.8174   -3.0658 H         1 UNK         0.1312 
     82 H82        31.7229   -3.6830   -6.2460 H         1 UNK         0.1406 
     83 H83        29.0859   -3.9473   -2.8847 H         1 UNK         0.1631 
     84 H84        29.1481   -5.7462   -4.4542 H         1 UNK         0.0717 
     85 H85        30.4626   -5.8512   -5.5905 H         1 UNK         0.0717 
     86 H86        26.3555   -4.3933   -5.7278 H         1 UNK         0.0934 
     87 H87        27.5369   -3.4942   -4.8192 H         1 UNK         0.0934 
     88 H88        26.7068   -2.8664   -7.6935 H         1 UNK         0.0739 
     89 H89        25.3669   -2.0936   -5.2925 H         1 UNK         0.3093 
     90 H90        23.7482    0.7773   -6.6562 H         1 UNK         0.0818 
     91 H91        21.7425   -0.4791   -5.9329 H         1 UNK         0.0819 
     92 H92        22.3910   -1.1937   -7.3995 H         1 UNK         0.0819 
     93 H93        22.6658   -1.9784   -5.8494 H         1 UNK         0.0819 
     94 H94        23.4359   -0.2772   -4.0925 H         1 UNK         0.3041 
     95 H95        26.3112    0.9852   -2.4951 H         1 UNK         0.0784 
     96 H96        25.0225    3.0829   -2.7280 H         1 UNK         0.0793 
     97 H97        23.5155    2.2353   -2.4231 H         1 UNK         0.0793 
     98 H98        24.7343    2.3581   -1.1546 H         1 UNK         0.0793 
     99 H99        25.4955   -0.7445   -1.4434 H         1 UNK         0.3024 
    100 H100       23.1519   -1.6356    0.0644 H         1 UNK         0.1171 
    101 H101       22.0381   -3.7340   -0.7687 H         1 UNK         0.0786 
    102 H102       22.2479   -3.1809   -2.4294 H         1 UNK         0.0786 
    103 H103       21.2129   -2.2882   -1.3220 H         1 UNK         0.0786 
    104 H104       24.8033   -3.2225   -1.8723 H         1 UNK         0.2977 
    105 H105       27.6207   -0.6618   -5.0172 H         1 UNK         0.3127 
    106 H106       30.2635   -0.1429   -5.9365 H         1 UNK         0.0770 
    107 H107       28.4771    1.6656   -4.2142 H         1 UNK         0.0814 
    108 H108       30.2277    1.7198   -4.3381 H         1 UNK         0.0814 
    109 H109       29.4471    0.3379   -3.5891 H         1 UNK         0.0814 
    110 H110       27.1449    1.5114   -6.4710 H         1 UNK         0.2983 
    111 H111       28.0879    3.5996   -8.1473 H         1 UNK         0.0947 
    112 H112       25.6884    3.8092   -8.7982 H         1 UNK         0.0806 
    113 H113       25.8500    3.6129   -7.0592 H         1 UNK         0.0806 
    114 H114       25.3313    2.2560   -8.0557 H         1 UNK         0.0806 
    115 H115       26.9012    0.3063   -8.9705 H         1 UNK         0.3000 
    116 H116       27.1640    0.5681  -11.7969 H         1 UNK         0.0850 
    117 H117       26.9763   -1.9243  -11.7776 H         1 UNK         0.0810 
    118 H118       25.7651   -1.1834  -10.7430 H         1 UNK         0.0810 
    119 H119       27.1892   -1.9386  -10.0320 H         1 UNK         0.0810 
    120 H120       29.4247   -0.7493   -9.3187 H         1 UNK         0.3040 
    121 H121       31.5154   -1.4131  -11.1544 H         1 UNK         0.0766 
    122 H122       32.8815   -1.6106   -9.0565 H         1 UNK         0.0812 
    123 H123       31.5813   -0.8623   -8.1373 H         1 UNK         0.0812 
    124 H124       31.3344   -2.4298   -8.8995 H         1 UNK         0.0812 
    125 H125       30.7179    1.5544   -9.4237 H         1 UNK         0.3205 
    126 H126       31.4235    3.6278   -9.4098 H         1 UNK         0.0754 
    127 H127       32.6135    4.6506  -11.3042 H         1 UNK         0.0769 
    128 H128       31.3808    3.5605  -11.9174 H         1 UNK         0.0769 
    129 H129       33.0768    3.0766  -11.9315 H         1 UNK         0.0769 
    130 H130       32.6566    1.6687   -7.8324 H         1 UNK         0.2981 
    131 H131       35.5135    2.1400   -7.7009 H         1 UNK         0.0541 
    132 H132       36.6041    2.8441   -5.6058 H         1 UNK         0.3459 
    133 H133       35.8784    4.2004   -4.7840 H         1 UNK         0.3459 
    134 H134       35.4163    0.6118   -5.7040 H         1 UNK         0.0612 
    135 H135       34.7838   -0.0739   -7.1721 H         1 UNK         0.0612 
    136 H136       33.3294   -1.9460   -6.4188 H         1 UNK         0.0624 
    137 H137       34.0916   -1.7589   -4.8548 H         1 UNK         0.0624 
@<TRIPOS>BOND
     1    1    2 1    
     2    1   72 1    
     3    1   73 1    
     4    1   74 1    
     5    2    3 2    
     6    2    4 am   BACKBONE|DICT|INTERRES
     7    4    5 1    
     8    4   75 1    
     9    5    6 1    
    10    5   35 1    
    11    5   76 1    
    12    6    7 1    
    13    6   77 1    
    14    6   78 1    
    15    7    8 1    
    16    8    9 1    
    17    8   79 1    
    18    8   80 1    
    19    9   10 ar   
    20    9   14 ar   
    21   10   11 ar   
    22   10   81 1    
    23   11   12 ar   
    24   11   71 1    
    25   12   13 ar   
    26   12   82 1    
    27   13   14 ar   
    28   13   15 1    
    29   14   83 1    
    30   15   16 1    
    31   15   84 1    
    32   15   85 1    
    33   16   17 1    
    34   17   18 1    
    35   17   86 1    
    36   17   87 1    
    37   18   19 1    
    38   18   37 1    
    39   18   88 1    
    40   19   20 am   BACKBONE|DICT|INTERRES
    41   19   89 1    
    42   20   21 2    
    43   20   22 1    
    44   22   23 1    
    45   22   24 1    
    46   22   90 1    
    47   23   91 1    
    48   23   92 1    
    49   23   93 1    
    50   24   25 am   BACKBONE|DICT|INTERRES
    51   24   94 1    
    52   25   26 2    
    53   25   27 1    
    54   27   28 1    
    55   27   29 1    
    56   27   95 1    
    57   28   96 1    
    58   28   97 1    
    59   28   98 1    
    60   29   30 am   BACKBONE|DICT|INTERRES
    61   29   99 1    
    62   30   31 2    
    63   30   32 1    
    64   32   33 1    
    65   32   34 1    
    66   32  100 1    
    67   33  101 1    
    68   33  102 1    
    69   33  103 1    
    70   34   35 am   BACKBONE|DICT|INTERRES
    71   34  104 1    
    72   35   36 2    
    73   37   38 2    
    74   37   39 am   BACKBONE|DICT|INTERRES
    75   39   40 1    
    76   39  105 1    
    77   40   41 1    
    78   40   42 1    
    79   40  106 1    
    80   41  107 1    
    81   41  108 1    
    82   41  109 1    
    83   42   43 2    
    84   42   44 am   BACKBONE|DICT|INTERRES
    85   44   45 1    
    86   44  110 1    
    87   45   46 1    
    88   45   47 1    
    89   45  111 1    
    90   46  112 1    
    91   46  113 1    
    92   46  114 1    
    93   47   48 2    
    94   47   49 am   BACKBONE|DICT|INTERRES
    95   49   50 1    
    96   49  115 1    
    97   50   51 1    
    98   50   52 1    
    99   50  116 1    
   100   51  117 1    
   101   51  118 1    
   102   51  119 1    
   103   52   53 2    
   104   52   54 am   BACKBONE|DICT|INTERRES
   105   54   55 1    
   106   54  120 1    
   107   55   56 1    
   108   55   57 1    
   109   55  121 1    
   110   56  122 1    
   111   56  123 1    
   112   56  124 1    
   113   57   58 2    
   114   57   59 am   BACKBONE|DICT|INTERRES
   115   59   60 1    
   116   59  125 1    
   117   60   61 1    
   118   60   62 1    
   119   60  126 1    
   120   61  127 1    
   121   61  128 1    
   122   61  129 1    
   123   62   63 2    
   124   62   64 am   BACKBONE|DICT|INTERRES
   125   64   65 1    
   126   64  130 1    
   127   65   66 1    
   128   65   69 1    
   129   65  131 1    
   130   66   67 am   BACKBONE|DICT|INTERRES
   131   66   68 2    
   132   67  132 1    
   133   67  133 1    
   134   69   70 1    
   135   69  134 1    
   136   69  135 1    
   137   70   71 1    
   138   71  136 1    
   139   71  137 1    
@<TRIPOS>SUBSTRUCTURE
     1 UNK         1 GROUP             0       ****    0 ROOT    
