@<TRIPOS>MOLECULE
3R137
137   139    1
SMALL
USER_CHARGES


@<TRIPOS>ATOM
      1 CA         30.0208    2.1825   -0.2745 C.3       0 UNK        -0.2020 
      2 C          29.2824    1.2717   -1.2425 C.2       0 UNK         0.4855 
      3 O          28.5230    1.7560   -2.0823 O.2       0 UNK        -0.5197 
      4 N          29.4897   -0.0467   -1.1309 N.am      1 UNK        -0.4892 
      5 CA         28.9185   -1.0964   -1.9882 C.3       1 UNK         0.0835 
      6 C6         29.7531   -2.4034   -1.9131 C.3       12 UNK        -0.0855 
      7 S7         31.5009   -2.1882   -2.4000 S.3       12 UNK        -0.2931 
      8 C8         31.9046   -3.8519   -3.0272 C.3       12 UNK         0.0378 
      9 C9         31.8048   -3.9248   -4.5451 C.ar      12 UNK        -0.0802 
     10 C10        32.9658   -3.9170   -5.3213 C.ar      12 UNK        -0.0944 
     11 C11        32.8922   -3.9755   -6.7157 C.ar      12 UNK        -0.0787 
     12 C12        31.6380   -4.0484   -7.3300 C.ar      12 UNK        -0.0862 
     13 C13        30.4621   -4.0818   -6.5711 C.ar      12 UNK        -0.0733 
     14 C14        30.5606   -4.0282   -5.1735 C.ar      12 UNK        -0.0832 
     15 C15        29.1256   -4.2111   -7.3125 C.3       12 UNK         0.0240 
     16 S16        27.6062   -4.0906   -6.2986 S.3       12 UNK        -0.2522 
     17 C17        27.6419   -2.3375   -5.8092 C.3       12 UNK        -0.0967 
     18 CA         26.8625   -1.4403   -6.7975 C.3       5 UNK         0.0660 
     19 N          25.4168   -1.6954   -6.8179 N.am      5 UNK        -0.4015 
     20 C          24.5500   -1.1219   -7.6696 C.2       4 UNK         0.4946 
     21 O          24.8789   -0.2911   -8.5179 O.2       4 UNK        -0.5353 
     22 CA         23.0683   -1.5191   -7.5583 C.3       4 UNK         0.0277 
     23 CB         22.7577   -2.6865   -8.5083 C.3       4 UNK        -0.1981 
     24 N          22.6767   -1.8799   -6.1948 N.am      4 UNK        -0.4209 
     25 C          22.5026   -1.0004   -5.1986 C.2       3 UNK         0.4942 
     26 O          22.5521    0.2218   -5.3516 O.2       3 UNK        -0.5208 
     27 CA         22.2524   -1.5723   -3.7851 C.3       3 UNK         0.0250 
     28 CB         22.3527   -3.1135   -3.7012 C.3       3 UNK        -0.1990 
     29 N          23.1242   -0.9689   -2.7663 N.am      3 UNK        -0.4232 
     30 C          24.4603   -0.8521   -2.8173 C.2       2 UNK         0.4993 
     31 O          25.1362   -1.1720   -3.7988 O.2       2 UNK        -0.5286 
     32 CA         25.1471   -0.2403   -1.5788 C.3       2 UNK         0.0209 
     33 CB         24.6659   -0.8752   -0.2545 C.3       2 UNK        -0.1931 
     34 N          26.6137   -0.2792   -1.6840 N.am      2 UNK        -0.4546 
     35 C          27.4177   -1.3531   -1.6942 C.2       1 UNK         0.5154 
     36 O          27.0246   -2.5021   -1.4808 O.2       1 UNK        -0.5181 
     37 C          27.1938    0.0373   -6.5464 C.2       5 UNK         0.5014 
     38 O          28.1019    0.5488   -7.1957 O.2       5 UNK        -0.5248 
     39 N          26.4282    0.7058   -5.6726 N.am      6 UNK        -0.4434 
     40 CA         26.5302    2.1434   -5.3920 C.3       6 UNK         0.0363 
     41 CB         25.4794    2.5334   -4.3421 C.3       6 UNK        -0.1936 
     42 C          26.4139    3.0535   -6.6323 C.2       6 UNK         0.5081 
     43 O          26.9707    4.1519   -6.6187 O.2       6 UNK        -0.5248 
     44 N          25.7144    2.5871   -7.6758 N.am      7 UNK        -0.4718 
     45 CA         25.6509    3.2392   -8.9823 C.3       7 UNK         0.0273 
     46 CB         24.2211    3.1251   -9.5371 C.3       7 UNK        -0.1935 
     47 C          26.6615    2.6256   -9.9654 C.2       7 UNK         0.5018 
     48 O          27.3211    3.3707  -10.6910 O.2       7 UNK        -0.5186 
     49 N          26.7374    1.2876  -10.0044 N.am      8 UNK        -0.4240 
     50 CA         27.4800    0.5325  -11.0147 C.3       8 UNK         0.0235 
     51 CB         26.9500   -0.9104  -11.0612 C.3       8 UNK        -0.2000 
     52 C          29.0090    0.5307  -10.8465 C.2       8 UNK         0.4941 
     53 O          29.7058    0.5226  -11.8631 O.2       8 UNK        -0.5273 
     54 N          29.5161    0.4936   -9.6065 N.am      9 UNK        -0.4262 
     55 CA         30.9401    0.3151   -9.3151 C.3       9 UNK         0.0264 
     56 CB         31.3673   -1.1475   -9.5706 C.3       9 UNK        -0.1955 
     57 C          31.2683    0.7904   -7.8940 C.2       9 UNK         0.5031 
     58 O          31.7141    1.9277   -7.7372 O.2       9 UNK        -0.5390 
     59 N          31.0550   -0.0929   -6.9040 N.am      10 UNK        -0.4204 
     60 CA         31.3575    0.0669   -5.4749 C.3       10 UNK         0.0237 
     61 CB         30.5012    1.1749   -4.8293 C.3       10 UNK        -0.1985 
     62 C          32.8631    0.2633   -5.2341 C.2       10 UNK         0.4970 
     63 O          33.2961    1.3331   -4.8015 O.2       10 UNK        -0.4914 
     64 N          33.6332   -0.7785   -5.5646 N.am      11 UNK        -0.4285 
     65 CA         35.1037   -0.7897   -5.5323 C.3       11 UNK         0.1007 
     66 C          35.7382   -0.6888   -4.1138 C.2       11 UNK         0.5703 
     67 N          34.9987   -0.9204   -3.0350 N.am      11 UNK        -0.7361 
     68 O          36.9256   -0.3965   -3.9937 O.2       11 UNK        -0.4986 
     69 C69        35.7032   -1.9961   -6.3084 C.3       12 UNK        -0.0947 
     70 S70        34.8642   -2.3723   -7.8888 S.3       12 UNK        -0.2240 
     71 C71        34.1631   -4.0227   -7.5578 C.3       12 UNK         0.0194 
     72 H72        30.6558    1.6215    0.4108 H         1 UNK         0.0906 
     73 H73        30.6503    2.8806   -0.8257 H         1 UNK         0.0906 
     74 H74        29.3085    2.7584    0.3157 H         1 UNK         0.0906 
     75 H75        30.1186   -0.3829   -0.4153 H         1 UNK         0.3140 
     76 H76        28.9618   -0.7435   -3.0206 H         1 UNK         0.1085 
     77 H77        29.7312   -2.8120   -0.9009 H         1 UNK         0.0836 
     78 H78        29.3057   -3.1653   -2.5517 H         1 UNK         0.0836 
     79 H79        32.9168   -4.1018   -2.7052 H         1 UNK         0.0731 
     80 H80        31.2556   -4.6009   -2.5711 H         1 UNK         0.0731 
     81 H81        33.9283   -3.8794   -4.8321 H         1 UNK         0.1312 
     82 H82        31.5786   -4.1106   -8.4085 H         1 UNK         0.1406 
     83 H83        29.6725   -4.0751   -4.5628 H         1 UNK         0.1631 
     84 H84        29.1109   -5.1785   -7.8162 H         1 UNK         0.0717 
     85 H85        29.0735   -3.4577   -8.0995 H         1 UNK         0.0717 
     86 H86        28.6817   -2.0153   -5.7325 H         1 UNK         0.0934 
     87 H87        27.2331   -2.2556   -4.8015 H         1 UNK         0.0934 
     88 H88        27.2283   -1.6645   -7.8006 H         1 UNK         0.0739 
     89 H89        25.0666   -2.3212   -6.1073 H         1 UNK         0.3093 
     90 H90        22.4739   -0.6579   -7.8721 H         1 UNK         0.0818 
     91 H91        21.6961   -2.9341   -8.4994 H         1 UNK         0.0819 
     92 H92        23.0202   -2.4313   -9.5362 H         1 UNK         0.0819 
     93 H93        23.3159   -3.5856   -8.2439 H         1 UNK         0.0819 
     94 H94        22.6036   -2.8647   -5.9836 H         1 UNK         0.3041 
     95 H95        21.2309   -1.2911   -3.5249 H         1 UNK         0.0784 
     96 H96        21.6306   -3.6004   -4.3579 H         1 UNK         0.0793 
     97 H97        23.3486   -3.4738   -3.9634 H         1 UNK         0.0793 
     98 H98        22.1383   -3.4617   -2.6905 H         1 UNK         0.0793 
     99 H99        22.6495   -0.6227   -1.9447 H         1 UNK         0.3024 
    100 H100       24.8721    0.8149   -1.5586 H         1 UNK         0.1171 
    101 H101       25.2433   -0.5065    0.5934 H         1 UNK         0.0786 
    102 H102       24.7514   -1.9624   -0.2682 H         1 UNK         0.0786 
    103 H103       23.6214   -0.6357   -0.0536 H         1 UNK         0.0786 
    104 H104       27.0690    0.6108   -1.8769 H         1 UNK         0.2977 
    105 H105       25.7361    0.1764   -5.1490 H         1 UNK         0.3127 
    106 H106       27.5176    2.3218   -4.9622 H         1 UNK         0.0770 
    107 H107       24.4720    2.2541   -4.6537 H         1 UNK         0.0814 
    108 H108       25.4820    3.6095   -4.1629 H         1 UNK         0.0814 
    109 H109       25.6882    2.0539   -3.3881 H         1 UNK         0.0814 
    110 H110       25.3129    1.6594   -7.6132 H         1 UNK         0.2983 
    111 H111       25.8863    4.3015   -8.8847 H         1 UNK         0.0947 
    112 H112       24.1427    3.6038  -10.5141 H         1 UNK         0.0806 
    113 H113       23.5024    3.6134   -8.8788 H         1 UNK         0.0806 
    114 H114       23.9115    2.0859   -9.6568 H         1 UNK         0.0806 
    115 H115       26.1331    0.7463   -9.3898 H         1 UNK         0.3000 
    116 H116       27.2677    0.9891  -11.9841 H         1 UNK         0.0850 
    117 H117       27.4432   -1.4829  -11.8480 H         1 UNK         0.0810 
    118 H118       25.8794   -0.9339  -11.2661 H         1 UNK         0.0810 
    119 H119       27.1212   -1.4347  -10.1217 H         1 UNK         0.0810 
    120 H120       28.8987    0.5689   -8.7959 H         1 UNK         0.3040 
    121 H121       31.5148    0.9534   -9.9902 H         1 UNK         0.0766 
    122 H122       32.3816   -1.3315   -9.2156 H         1 UNK         0.0812 
    123 H123       30.7045   -1.8579   -9.0788 H         1 UNK         0.0812 
    124 H124       31.3594   -1.3790  -10.6357 H         1 UNK         0.0812 
    125 H125       30.6877   -0.9938   -7.1702 H         1 UNK         0.3205 
    126 H126       31.0840   -0.8730   -4.9949 H         1 UNK         0.0754 
    127 H127       30.7709    1.3093   -3.7819 H         1 UNK         0.0769 
    128 H128       29.4436    0.9226   -4.8558 H         1 UNK         0.0769 
    129 H129       30.6299    2.1390   -5.3209 H         1 UNK         0.0769 
    130 H130       33.2018   -1.6204   -5.9183 H         1 UNK         0.2981 
    131 H131       35.4185    0.1123   -6.0606 H         1 UNK         0.0541 
    132 H132       34.0216   -1.1523   -3.1209 H         1 UNK         0.3459 
    133 H133       35.4224   -0.8494   -2.1238 H         1 UNK         0.3459 
    134 H134       35.7171   -2.8912   -5.6867 H         1 UNK         0.0612 
    135 H135       36.7508   -1.7945   -6.5387 H         1 UNK         0.0612 
    136 H136       33.9519   -4.4994   -8.5161 H         1 UNK         0.0624 
    137 H137       34.9118   -4.6518   -7.0739 H         1 UNK         0.0624 
@<TRIPOS>BOND
     1    1    2 1    
     2    1   72 1    
     3    1   73 1    
     4    1   74 1    
     5    2    3 2    
     6    2    4 am   BACKBONE|DICT|INTERRES
     7    4    5 1    
     8    4   75 1    
     9    5    6 1    
    10    5   35 1    
    11    5   76 1    
    12    6    7 1    
    13    6   77 1    
    14    6   78 1    
    15    7    8 1    
    16    8    9 1    
    17    8   79 1    
    18    8   80 1    
    19    9   10 ar   
    20    9   14 ar   
    21   10   11 ar   
    22   10   81 1    
    23   11   12 ar   
    24   11   71 1    
    25   12   13 ar   
    26   12   82 1    
    27   13   14 ar   
    28   13   15 1    
    29   14   83 1    
    30   15   16 1    
    31   15   84 1    
    32   15   85 1    
    33   16   17 1    
    34   17   18 1    
    35   17   86 1    
    36   17   87 1    
    37   18   19 1    
    38   18   37 1    
    39   18   88 1    
    40   19   20 am   BACKBONE|DICT|INTERRES
    41   19   89 1    
    42   20   21 2    
    43   20   22 1    
    44   22   23 1    
    45   22   24 1    
    46   22   90 1    
    47   23   91 1    
    48   23   92 1    
    49   23   93 1    
    50   24   25 am   BACKBONE|DICT|INTERRES
    51   24   94 1    
    52   25   26 2    
    53   25   27 1    
    54   27   28 1    
    55   27   29 1    
    56   27   95 1    
    57   28   96 1    
    58   28   97 1    
    59   28   98 1    
    60   29   30 am   BACKBONE|DICT|INTERRES
    61   29   99 1    
    62   30   31 2    
    63   30   32 1    
    64   32   33 1    
    65   32   34 1    
    66   32  100 1    
    67   33  101 1    
    68   33  102 1    
    69   33  103 1    
    70   34   35 am   BACKBONE|DICT|INTERRES
    71   34  104 1    
    72   35   36 2    
    73   37   38 2    
    74   37   39 am   BACKBONE|DICT|INTERRES
    75   39   40 1    
    76   39  105 1    
    77   40   41 1    
    78   40   42 1    
    79   40  106 1    
    80   41  107 1    
    81   41  108 1    
    82   41  109 1    
    83   42   43 2    
    84   42   44 am   BACKBONE|DICT|INTERRES
    85   44   45 1    
    86   44  110 1    
    87   45   46 1    
    88   45   47 1    
    89   45  111 1    
    90   46  112 1    
    91   46  113 1    
    92   46  114 1    
    93   47   48 2    
    94   47   49 am   BACKBONE|DICT|INTERRES
    95   49   50 1    
    96   49  115 1    
    97   50   51 1    
    98   50   52 1    
    99   50  116 1    
   100   51  117 1    
   101   51  118 1    
   102   51  119 1    
   103   52   53 2    
   104   52   54 am   BACKBONE|DICT|INTERRES
   105   54   55 1    
   106   54  120 1    
   107   55   56 1    
   108   55   57 1    
   109   55  121 1    
   110   56  122 1    
   111   56  123 1    
   112   56  124 1    
   113   57   58 2    
   114   57   59 am   BACKBONE|DICT|INTERRES
   115   59   60 1    
   116   59  125 1    
   117   60   61 1    
   118   60   62 1    
   119   60  126 1    
   120   61  127 1    
   121   61  128 1    
   122   61  129 1    
   123   62   63 2    
   124   62   64 am   BACKBONE|DICT|INTERRES
   125   64   65 1    
   126   64  130 1    
   127   65   66 1    
   128   65   69 1    
   129   65  131 1    
   130   66   67 am   BACKBONE|DICT|INTERRES
   131   66   68 2    
   132   67  132 1    
   133   67  133 1    
   134   69   70 1    
   135   69  134 1    
   136   69  135 1    
   137   70   71 1    
   138   71  136 1    
   139   71  137 1    
@<TRIPOS>SUBSTRUCTURE
     1 UNK         1 GROUP             0       ****    0 ROOT    
