@<TRIPOS>MOLECULE
3R137
137   139    1
SMALL
USER_CHARGES


@<TRIPOS>ATOM
      1 CA         23.7941   -3.3244    0.6534 C.3       0 UNK        -0.2020 
      2 C          25.0298   -2.4802    0.3824 C.2       0 UNK         0.4855 
      3 O          25.1840   -1.4112    0.9734 O.2       0 UNK        -0.5197 
      4 N          25.9122   -2.9447   -0.5116 N.am      1 UNK        -0.4892 
      5 CA         27.1679   -2.2835   -0.8818 C.3       1 UNK         0.0835 
      6 C6         28.1922   -3.3077   -1.4289 C.3       12 UNK        -0.0855 
      7 S7         29.9118   -2.7583   -1.1879 S.3       12 UNK        -0.2931 
      8 C8         30.8185   -4.1684   -1.8951 C.3       12 UNK         0.0378 
      9 C9         31.0117   -4.0102   -3.3955 C.ar      12 UNK        -0.0802 
     10 C10        32.1694   -3.3981   -3.8827 C.ar      12 UNK        -0.0944 
     11 C11        32.3798   -3.2601   -5.2577 C.ar      12 UNK        -0.0787 
     12 C12        31.4047   -3.7337   -6.1415 C.ar      12 UNK        -0.0862 
     13 C13        30.2356   -4.3475   -5.6759 C.ar      12 UNK        -0.0733 
     14 C14        30.0561   -4.4954   -4.2944 C.ar      12 UNK        -0.0832 
     15 C15        29.2376   -4.8778   -6.7109 C.3       12 UNK         0.0240 
     16 S16        27.5593   -5.3107   -6.1156 S.3       12 UNK        -0.2522 
     17 C17        26.8613   -3.7425   -5.4914 C.3       12 UNK        -0.0967 
     18 CA         26.6097   -2.6623   -6.5813 C.3       5 UNK         0.0660 
     19 N          25.3521   -1.9320   -6.3618 N.am      5 UNK        -0.4015 
     20 C          24.8679   -0.9234   -7.1014 C.2       4 UNK         0.4946 
     21 O          25.4867   -0.3777   -8.0122 O.2       4 UNK        -0.5353 
     22 CA         23.4443   -0.4247   -6.8016 C.3       4 UNK         0.0277 
     23 CB         22.3905   -1.3311   -7.4672 C.3       4 UNK        -0.1981 
     24 N          23.1478   -0.1974   -5.3831 N.am      4 UNK        -0.4209 
     25 C          23.0422   -1.0839   -4.3865 C.2       3 UNK         0.4942 
     26 O          23.2435   -2.2938   -4.5118 O.2       3 UNK        -0.5208 
     27 CA         22.7084   -0.4932   -3.0052 C.3       3 UNK         0.0250 
     28 CB         22.0028   -1.5149   -2.0960 C.3       3 UNK        -0.1990 
     29 N          23.9240   -0.0249   -2.3433 N.am      3 UNK        -0.4232 
     30 C          24.6704    1.0236   -2.7197 C.2       2 UNK         0.4993 
     31 O          24.3402    1.8142   -3.6047 O.2       2 UNK        -0.5286 
     32 CA         26.0178    1.2196   -2.0013 C.3       2 UNK         0.0209 
     33 CB         25.9403    2.3996   -1.0195 C.3       2 UNK        -0.1931 
     34 N          26.4738    0.0259   -1.2805 N.am      2 UNK        -0.4546 
     35 C          26.8846   -1.1154   -1.8507 C.2       1 UNK         0.5154 
     36 O          26.9639   -1.2758   -3.0715 O.2       1 UNK        -0.5181 
     37 C          27.8260   -1.7308   -6.7426 C.2       5 UNK         0.5014 
     38 O          28.3937   -1.6524   -7.8347 O.2       5 UNK        -0.5248 
     39 N          28.1902   -1.0286   -5.6601 N.am      6 UNK        -0.4434 
     40 CA         29.3566   -0.1469   -5.6220 C.3       6 UNK         0.0363 
     41 CB         29.6252    0.2968   -4.1767 C.3       6 UNK        -0.1936 
     42 C          29.2320    1.0683   -6.5534 C.2       6 UNK         0.5081 
     43 O          30.2462    1.5282   -7.0774 O.2       6 UNK        -0.5248 
     44 N          27.9974    1.5470   -6.7600 N.am      7 UNK        -0.4718 
     45 CA         27.6721    2.6463   -7.6674 C.3       7 UNK         0.0273 
     46 CB         26.2351    3.1270   -7.4058 C.3       7 UNK        -0.1935 
     47 C          27.8701    2.2579   -9.1408 C.2       7 UNK         0.5018 
     48 O          28.5390    2.9903   -9.8699 O.2       7 UNK        -0.5186 
     49 N          27.3175    1.1043   -9.5441 N.am      8 UNK        -0.4240 
     50 CA         27.4354    0.5512  -10.8959 C.3       8 UNK         0.0235 
     51 CB         26.4651   -0.6296  -11.0602 C.3       8 UNK        -0.2000 
     52 C          28.8689    0.1207  -11.2388 C.2       8 UNK         0.4941 
     53 O          29.3107    0.3400  -12.3673 O.2       8 UNK        -0.5273 
     54 N          29.5749   -0.4624  -10.2601 N.am      9 UNK        -0.4262 
     55 CA         30.9787   -0.8604  -10.3845 C.3       9 UNK         0.0264 
     56 CB         31.3198   -1.8387   -9.2508 C.3       9 UNK        -0.1955 
     57 C          31.9647    0.3219  -10.3718 C.2       9 UNK         0.5031 
     58 O          33.1063    0.1385  -10.7968 O.2       9 UNK        -0.5390 
     59 N          31.5287    1.4846   -9.8590 N.am      10 UNK        -0.4204 
     60 CA         32.3280    2.6792   -9.5540 C.3       10 UNK         0.0237 
     61 CB         32.8447    3.3499  -10.8445 C.3       10 UNK        -0.1985 
     62 C          33.4427    2.3607   -8.5370 C.2       10 UNK         0.4970 
     63 O          34.6067    2.7041   -8.7541 O.2       10 UNK        -0.4914 
     64 N          33.0540    1.6570   -7.4676 N.am      11 UNK        -0.4285 
     65 CA         33.9337    1.1456   -6.4121 C.3       11 UNK         0.1007 
     66 C          34.5586    2.2737   -5.5448 C.2       11 UNK         0.5703 
     67 N          35.7693    2.0725   -5.0426 N.am      11 UNK        -0.7361 
     68 O          33.9452    3.3104   -5.2959 O.2       11 UNK        -0.4986 
     69 C69        33.1841    0.0937   -5.5513 C.3       12 UNK        -0.0947 
     70 S70        34.2848   -1.2053   -4.9070 S.3       12 UNK        -0.2240 
     71 C71        33.6861   -2.6806   -5.8021 C.3       12 UNK         0.0194 
     72 H72        23.6713   -4.1167   -0.0849 H         1 UNK         0.0906 
     73 H73        23.8656   -3.7841    1.6387 H         1 UNK         0.0906 
     74 H74        22.8995   -2.7027    0.6351 H         1 UNK         0.0906 
     75 H75        25.7185   -3.8129   -0.9913 H         1 UNK         0.3140 
     76 H76        27.5912   -1.8564    0.0311 H         1 UNK         0.1085 
     77 H77        28.0905   -4.2526   -0.8922 H         1 UNK         0.0836 
     78 H78        28.0125   -3.5431   -2.4763 H         1 UNK         0.0836 
     79 H79        31.7899   -4.2391   -1.4030 H         1 UNK         0.0731 
     80 H80        30.3011   -5.1026   -1.6711 H         1 UNK         0.0731 
     81 H81        32.9182   -3.0460   -3.1866 H         1 UNK         0.1312 
     82 H82        31.5711   -3.6548   -7.2057 H         1 UNK         0.1406 
     83 H83        29.1805   -4.9975   -3.9101 H         1 UNK         0.1631 
     84 H84        29.6681   -5.7796   -7.1479 H         1 UNK         0.0717 
     85 H85        29.1453   -4.1705   -7.5347 H         1 UNK         0.0717 
     86 H86        25.9166   -4.0140   -5.0170 H         1 UNK         0.0934 
     87 H87        27.4793   -3.3738   -4.6745 H         1 UNK         0.0934 
     88 H88        26.4748   -3.1692   -7.5389 H         1 UNK         0.0739 
     89 H89        24.7427   -2.2803   -5.6254 H         1 UNK         0.3093 
     90 H90        23.3617    0.5578   -7.2696 H         1 UNK         0.0818 
     91 H91        21.3850   -0.9308   -7.3375 H         1 UNK         0.0819 
     92 H92        22.5706   -1.4114   -8.5401 H         1 UNK         0.0819 
     93 H93        22.4032   -2.3432   -7.0617 H         1 UNK         0.0819 
     94 H94        23.0952    0.7788   -5.1137 H         1 UNK         0.3041 
     95 H95        22.0359    0.3562   -3.1438 H         1 UNK         0.0784 
     96 H96        21.0760   -1.8646   -2.5528 H         1 UNK         0.0793 
     97 H97        22.6238   -2.3922   -1.9129 H         1 UNK         0.0793 
     98 H98        21.7433   -1.0772   -1.1319 H         1 UNK         0.0793 
     99 H99        24.2908   -0.6118   -1.6092 H         1 UNK         0.3024 
    100 H100       26.7535    1.4592   -2.7707 H         1 UNK         0.1171 
    101 H101       25.2245    2.2116   -0.2181 H         1 UNK         0.0786 
    102 H102       25.6280    3.3125   -1.5288 H         1 UNK         0.0786 
    103 H103       26.9102    2.6011   -0.5641 H         1 UNK         0.0786 
    104 H104       26.3539    0.0299   -0.2743 H         1 UNK         0.2977 
    105 H105       27.6732   -1.1431   -4.7891 H         1 UNK         0.3127 
    106 H106       30.2097   -0.7349   -5.9615 H         1 UNK         0.0770 
    107 H107       28.7682    0.8153   -3.7499 H         1 UNK         0.0814 
    108 H108       30.4715    0.9813   -4.1234 H         1 UNK         0.0814 
    109 H109       29.8551   -0.5574   -3.5389 H         1 UNK         0.0814 
    110 H110       27.2238    1.0710   -6.3197 H         1 UNK         0.2983 
    111 H111       28.3513    3.4738   -7.4496 H         1 UNK         0.0947 
    112 H112       25.9815    3.9654   -8.0559 H         1 UNK         0.0806 
    113 H113       26.1117    3.4667   -6.3772 H         1 UNK         0.0806 
    114 H114       25.5015    2.3411   -7.5879 H         1 UNK         0.0806 
    115 H115       26.7636    0.5605   -8.8819 H         1 UNK         0.3000 
    116 H116       27.1458    1.3321  -11.6022 H         1 UNK         0.0850 
    117 H117       26.5226   -1.0478  -12.0660 H         1 UNK         0.0810 
    118 H118       25.4331   -0.3196  -10.8951 H         1 UNK         0.0810 
    119 H119       26.6877   -1.4333  -10.3566 H         1 UNK         0.0810 
    120 H120       29.1131   -0.6754   -9.3781 H         1 UNK         0.3040 
    121 H121       31.1045   -1.3824  -11.3355 H         1 UNK         0.0766 
    122 H122       32.3503   -2.1878   -9.3291 H         1 UNK         0.0812 
    123 H123       31.2047   -1.3719   -8.2717 H         1 UNK         0.0812 
    124 H124       30.6747   -2.7168   -9.2826 H         1 UNK         0.0812 
    125 H125       30.5747    1.5133   -9.5225 H         1 UNK         0.3205 
    126 H126       31.6531    3.3818   -9.0623 H         1 UNK         0.0754 
    127 H127       33.3431    4.2936  -10.6197 H         1 UNK         0.0769 
    128 H128       32.0257    3.5706  -11.5293 H         1 UNK         0.0769 
    129 H129       33.5628    2.7214  -11.3720 H         1 UNK         0.0769 
    130 H130       32.0567    1.5008   -7.3368 H         1 UNK         0.2981 
    131 H131       34.7501    0.6425   -6.9346 H         1 UNK         0.0541 
    132 H132       36.2643    1.2113   -5.2151 H         1 UNK         0.3459 
    133 H133       36.1877    2.7861   -4.4668 H         1 UNK         0.3459 
    134 H134       32.4159   -0.3972   -6.1475 H         1 UNK         0.0612 
    135 H135       32.6604    0.5592   -4.7159 H         1 UNK         0.0612 
    136 H136       33.5923   -2.4351   -6.8612 H         1 UNK         0.0624 
    137 H137       34.4522   -3.4537   -5.7344 H         1 UNK         0.0624 
@<TRIPOS>BOND
     1    1    2 1    
     2    1   72 1    
     3    1   73 1    
     4    1   74 1    
     5    2    3 2    
     6    2    4 am   BACKBONE|DICT|INTERRES
     7    4    5 1    
     8    4   75 1    
     9    5    6 1    
    10    5   35 1    
    11    5   76 1    
    12    6    7 1    
    13    6   77 1    
    14    6   78 1    
    15    7    8 1    
    16    8    9 1    
    17    8   79 1    
    18    8   80 1    
    19    9   10 ar   
    20    9   14 ar   
    21   10   11 ar   
    22   10   81 1    
    23   11   12 ar   
    24   11   71 1    
    25   12   13 ar   
    26   12   82 1    
    27   13   14 ar   
    28   13   15 1    
    29   14   83 1    
    30   15   16 1    
    31   15   84 1    
    32   15   85 1    
    33   16   17 1    
    34   17   18 1    
    35   17   86 1    
    36   17   87 1    
    37   18   19 1    
    38   18   37 1    
    39   18   88 1    
    40   19   20 am   BACKBONE|DICT|INTERRES
    41   19   89 1    
    42   20   21 2    
    43   20   22 1    
    44   22   23 1    
    45   22   24 1    
    46   22   90 1    
    47   23   91 1    
    48   23   92 1    
    49   23   93 1    
    50   24   25 am   BACKBONE|DICT|INTERRES
    51   24   94 1    
    52   25   26 2    
    53   25   27 1    
    54   27   28 1    
    55   27   29 1    
    56   27   95 1    
    57   28   96 1    
    58   28   97 1    
    59   28   98 1    
    60   29   30 am   BACKBONE|DICT|INTERRES
    61   29   99 1    
    62   30   31 2    
    63   30   32 1    
    64   32   33 1    
    65   32   34 1    
    66   32  100 1    
    67   33  101 1    
    68   33  102 1    
    69   33  103 1    
    70   34   35 am   BACKBONE|DICT|INTERRES
    71   34  104 1    
    72   35   36 2    
    73   37   38 2    
    74   37   39 am   BACKBONE|DICT|INTERRES
    75   39   40 1    
    76   39  105 1    
    77   40   41 1    
    78   40   42 1    
    79   40  106 1    
    80   41  107 1    
    81   41  108 1    
    82   41  109 1    
    83   42   43 2    
    84   42   44 am   BACKBONE|DICT|INTERRES
    85   44   45 1    
    86   44  110 1    
    87   45   46 1    
    88   45   47 1    
    89   45  111 1    
    90   46  112 1    
    91   46  113 1    
    92   46  114 1    
    93   47   48 2    
    94   47   49 am   BACKBONE|DICT|INTERRES
    95   49   50 1    
    96   49  115 1    
    97   50   51 1    
    98   50   52 1    
    99   50  116 1    
   100   51  117 1    
   101   51  118 1    
   102   51  119 1    
   103   52   53 2    
   104   52   54 am   BACKBONE|DICT|INTERRES
   105   54   55 1    
   106   54  120 1    
   107   55   56 1    
   108   55   57 1    
   109   55  121 1    
   110   56  122 1    
   111   56  123 1    
   112   56  124 1    
   113   57   58 2    
   114   57   59 am   BACKBONE|DICT|INTERRES
   115   59   60 1    
   116   59  125 1    
   117   60   61 1    
   118   60   62 1    
   119   60  126 1    
   120   61  127 1    
   121   61  128 1    
   122   61  129 1    
   123   62   63 2    
   124   62   64 am   BACKBONE|DICT|INTERRES
   125   64   65 1    
   126   64  130 1    
   127   65   66 1    
   128   65   69 1    
   129   65  131 1    
   130   66   67 am   BACKBONE|DICT|INTERRES
   131   66   68 2    
   132   67  132 1    
   133   67  133 1    
   134   69   70 1    
   135   69  134 1    
   136   69  135 1    
   137   70   71 1    
   138   71  136 1    
   139   71  137 1    
@<TRIPOS>SUBSTRUCTURE
     1 UNK         1 GROUP             0       ****    0 ROOT    
