@<TRIPOS>MOLECULE
3R137
137   139    1
SMALL
USER_CHARGES


@<TRIPOS>ATOM
      1 CA         26.5084   -7.0523   -6.9302 C.3       0 UNK        -0.2020 
      2 C          27.3684   -5.8234   -7.2144 C.2       0 UNK         0.4855 
      3 O          27.7042   -5.5808   -8.3707 O.2       0 UNK        -0.5197 
      4 N          27.7560   -5.0222   -6.2113 N.am      1 UNK        -0.4892 
      5 CA         27.4359   -5.1533   -4.7805 C.3       1 UNK         0.0835 
      6 C6         28.3212   -4.2197   -3.9189 C.3       12 UNK        -0.0855 
      7 S7         30.0825   -4.6774   -4.0237 S.3       12 UNK        -0.2931 
      8 C8         30.6715   -4.2218   -2.3636 C.3       12 UNK         0.0378 
      9 C9         30.8115   -2.7143   -2.2023 C.ar      12 UNK        -0.0802 
     10 C10        31.9100   -2.0569   -2.7638 C.ar      12 UNK        -0.0944 
     11 C11        32.0884   -0.6833   -2.5797 C.ar      12 UNK        -0.0787 
     12 C12        31.1525    0.0362   -1.8319 C.ar      12 UNK        -0.0862 
     13 C13        30.0418   -0.6065   -1.2722 C.ar      12 UNK        -0.0733 
     14 C14        29.8755   -1.9829   -1.4625 C.ar      12 UNK        -0.0832 
     15 C15        29.0489    0.1820   -0.4245 C.3       12 UNK         0.0240 
     16 S16        27.4341    0.4204   -1.2389 S.3       12 UNK        -0.2522 
     17 C17        27.8956    1.3117   -2.7613 C.3       12 UNK        -0.0967 
     18 CA         27.3887    0.5445   -4.0150 C.3       5 UNK         0.0660 
     19 N          25.9454    0.6938   -4.2275 N.am      5 UNK        -0.4015 
     20 C          25.2934    1.8090   -4.5986 C.2       4 UNK         0.4946 
     21 O          25.8599    2.8703   -4.8659 O.2       4 UNK        -0.5353 
     22 CA         23.7537    1.7581   -4.7013 C.3       4 UNK         0.0277 
     23 CB         23.3009    1.8894   -6.1641 C.3       4 UNK        -0.1981 
     24 N          23.1610    0.5470   -4.1329 N.am      4 UNK        -0.4209 
     25 C          23.0263    0.2922   -2.8238 C.2       3 UNK         0.4942 
     26 O          23.2827    1.1089   -1.9388 O.2       3 UNK        -0.5208 
     27 CA         22.5473   -1.1213   -2.4308 C.3       3 UNK         0.0250 
     28 CB         21.0603   -1.0937   -2.0401 C.3       3 UNK        -0.1990 
     29 N          22.7564   -2.1551   -3.4571 N.am      3 UNK        -0.4232 
     30 C          23.9431   -2.4955   -3.9798 C.2       2 UNK         0.4993 
     31 O          25.0022   -1.9378   -3.6820 O.2       2 UNK        -0.5286 
     32 CA         23.9307   -3.5814   -5.0700 C.3       2 UNK         0.0209 
     33 CB         23.3779   -3.0110   -6.3875 C.3       2 UNK        -0.1931 
     34 N          25.2796   -4.0964   -5.3117 N.am      2 UNK        -0.4546 
     35 C          25.9495   -4.8900   -4.4654 C.2       1 UNK         0.5154 
     36 O          25.4420   -5.4085   -3.4698 O.2       1 UNK        -0.5181 
     37 C          28.1706    0.8442   -5.3073 C.2       5 UNK         0.5014 
     38 O          28.1081    0.0366   -6.2367 O.2       5 UNK        -0.5248 
     39 N          28.8844    1.9792   -5.3532 N.am      6 UNK        -0.4434 
     40 CA         29.8004    2.3925   -6.4209 C.3       6 UNK         0.0363 
     41 CB         30.3816    3.7727   -6.0811 C.3       6 UNK        -0.1936 
     42 C          29.2005    2.3982   -7.8352 C.2       6 UNK         0.5081 
     43 O          29.9264    2.1209   -8.7881 O.2       6 UNK        -0.5248 
     44 N          27.8909    2.6571   -7.9515 N.am      7 UNK        -0.4718 
     45 CA         27.1495    2.6031   -9.2162 C.3       7 UNK         0.0273 
     46 CB         25.7310    3.1470   -8.9938 C.3       7 UNK        -0.1935 
     47 C          27.0906    1.1968   -9.8460 C.2       7 UNK         0.5018 
     48 O          26.9543    1.0968  -11.0660 O.2       7 UNK        -0.5186 
     49 N          27.1966    0.1501   -9.0160 N.am      8 UNK        -0.4240 
     50 CA         27.2563   -1.2494   -9.4372 C.3       8 UNK         0.0235 
     51 CB         26.2810   -2.0758   -8.5821 C.3       8 UNK        -0.2000 
     52 C          28.6842   -1.8008   -9.3127 C.2       8 UNK         0.4941 
     53 O          29.1524   -2.4795  -10.2268 O.2       8 UNK        -0.5273 
     54 N          29.3476   -1.5038   -8.1865 N.am      9 UNK        -0.4262 
     55 CA         30.6719   -2.0151   -7.8291 C.3       9 UNK         0.0264 
     56 CB         30.8928   -1.7917   -6.3252 C.3       9 UNK        -0.1955 
     57 C          31.8326   -1.4058   -8.6352 C.2       9 UNK         0.5031 
     58 O          32.8877   -2.0358   -8.7139 O.2       9 UNK        -0.5390 
     59 N          31.6410   -0.1966   -9.1871 N.am      10 UNK        -0.4204 
     60 CA         32.6088    0.6042   -9.9539 C.3       10 UNK         0.0237 
     61 CB         33.0531   -0.1300  -11.2376 C.3       10 UNK        -0.1985 
     62 C          33.8045    1.1302   -9.1303 C.2       10 UNK         0.4970 
     63 O          34.7665    1.6278   -9.7186 O.2       10 UNK        -0.4914 
     64 N          33.7288    1.0324   -7.7975 N.am      11 UNK        -0.4285 
     65 CA         34.7053    1.5767   -6.8457 C.3       11 UNK         0.1007 
     66 C          34.6579    3.1268   -6.7266 C.2       11 UNK         0.5703 
     67 N          35.6848    3.7326   -6.1451 N.am      11 UNK        -0.7361 
     68 O          33.7065    3.7858   -7.1413 O.2       11 UNK        -0.4986 
     69 C69        34.6138    0.8621   -5.4699 C.3       12 UNK        -0.0947 
     70 S70        32.9448    0.8353   -4.7314 S.3       12 UNK        -0.2240 
     71 C71        33.3144    0.0092   -3.1553 C.3       12 UNK         0.0194 
     72 H72        26.4948   -7.7117   -7.7978 H         1 UNK         0.0906 
     73 H73        26.8935   -7.6301   -6.0913 H         1 UNK         0.0906 
     74 H74        25.4792   -6.7634   -6.7196 H         1 UNK         0.0906 
     75 H75        28.3661   -4.2494   -6.4350 H         1 UNK         0.3140 
     76 H76        27.6451   -6.1801   -4.4745 H         1 UNK         0.1085 
     77 H77        28.2069   -3.1768   -4.2225 H         1 UNK         0.0836 
     78 H78        28.0140   -4.2651   -2.8718 H         1 UNK         0.0836 
     79 H79        30.0071   -4.6380   -1.6048 H         1 UNK         0.0731 
     80 H80        31.6434   -4.6898   -2.1995 H         1 UNK         0.0731 
     81 H81        32.6347   -2.6217   -3.3345 H         1 UNK         0.1312 
     82 H82        31.2971    1.0972   -1.6799 H         1 UNK         0.1406 
     83 H83        29.0246   -2.4834   -1.0206 H         1 UNK         0.1631 
     84 H84        29.4573    1.1590   -0.1609 H         1 UNK         0.0717 
     85 H85        28.8899   -0.3420    0.5190 H         1 UNK         0.0717 
     86 H86        27.4861    2.3222   -2.7157 H         1 UNK         0.0934 
     87 H87        28.9787    1.4292   -2.7763 H         1 UNK         0.0934 
     88 H88        27.5542   -0.5207   -3.8415 H         1 UNK         0.0739 
     89 H89        25.4134   -0.1540   -4.0446 H         1 UNK         0.3093 
     90 H90        23.3672    2.6173   -4.1488 H         1 UNK         0.0818 
     91 H91        22.2143    1.8633   -6.2490 H         1 UNK         0.0819 
     92 H92        23.6285    2.8411   -6.5837 H         1 UNK         0.0819 
     93 H93        23.7076    1.0926   -6.7884 H         1 UNK         0.0819 
     94 H94        22.9064   -0.1812   -4.7834 H         1 UNK         0.3041 
     95 H95        23.1258   -1.4168   -1.5529 H         1 UNK         0.0784 
     96 H96        20.8753   -0.3568   -1.2570 H         1 UNK         0.0793 
     97 H97        20.4249   -0.8341   -2.8879 H         1 UNK         0.0793 
     98 H98        20.7316   -2.0593   -1.6553 H         1 UNK         0.0793 
     99 H99        21.9305   -2.6466   -3.7689 H         1 UNK         0.3024 
    100 H100       23.2953   -4.4056   -4.7370 H         1 UNK         0.1171 
    101 H101       23.4255   -3.7464   -7.1912 H         1 UNK         0.0786 
    102 H102       23.9304   -2.1272   -6.7078 H         1 UNK         0.0786 
    103 H103       22.3321   -2.7194   -6.2835 H         1 UNK         0.0786 
    104 H104       25.7876   -3.7013   -6.0884 H         1 UNK         0.2977 
    105 H105       28.8125    2.6094   -4.5682 H         1 UNK         0.3127 
    106 H106       30.6218    1.6751   -6.4339 H         1 UNK         0.0770 
    107 H107       29.5993    4.5225   -5.9584 H         1 UNK         0.0814 
    108 H108       31.0450    4.1227   -6.8731 H         1 UNK         0.0814 
    109 H109       30.9697    3.7405   -5.1636 H         1 UNK         0.0814 
    110 H110       27.3638    2.8594   -7.1120 H         1 UNK         0.2983 
    111 H111       27.6605    3.2558   -9.9275 H         1 UNK         0.0947 
    112 H112       25.1779    3.1899   -9.9332 H         1 UNK         0.0806 
    113 H113       25.7477    4.1559   -8.5810 H         1 UNK         0.0806 
    114 H114       25.1666    2.5110   -8.3136 H         1 UNK         0.0806 
    115 H115       27.3446    0.3309   -8.0280 H         1 UNK         0.3000 
    116 H116       26.9533   -1.3475  -10.4819 H         1 UNK         0.0850 
    117 H117       26.3251   -3.1323   -8.8503 H         1 UNK         0.0810 
    118 H118       25.2538   -1.7460   -8.7359 H         1 UNK         0.0810 
    119 H119       26.5047   -1.9952   -7.5177 H         1 UNK         0.0810 
    120 H120       28.8778   -0.9430   -7.4761 H         1 UNK         0.3040 
    121 H121       30.6770   -3.0912   -8.0165 H         1 UNK         0.0766 
    122 H122       31.8539   -2.1929   -6.0005 H         1 UNK         0.0812 
    123 H123       30.1208   -2.2809   -5.7333 H         1 UNK         0.0812 
    124 H124       30.8749   -0.7336   -6.0691 H         1 UNK         0.0812 
    125 H125       30.7515    0.2690   -9.0338 H         1 UNK         0.3205 
    126 H126       32.0644    1.4950  -10.2697 H         1 UNK         0.0754 
    127 H127       33.6250    0.5316  -11.8893 H         1 UNK         0.0769 
    128 H128       32.1946   -0.4821  -11.8098 H         1 UNK         0.0769 
    129 H129       33.6856   -0.9901  -11.0166 H         1 UNK         0.0769 
    130 H130       32.8991    0.6337   -7.3879 H         1 UNK         0.2981 
    131 H131       35.6921    1.3458   -7.2519 H         1 UNK         0.0541 
    132 H132       35.6710    4.7363   -6.0543 H         1 UNK         0.3459 
    133 H133       36.4736    3.2093   -5.7986 H         1 UNK         0.3459 
    134 H134       35.3105    1.3016   -4.7539 H         1 UNK         0.0612 
    135 H135       34.9331   -0.1743   -5.5911 H         1 UNK         0.0612 
    136 H136       34.1130   -0.7197   -3.3025 H         1 UNK         0.0624 
    137 H137       33.6985    0.7449   -2.4472 H         1 UNK         0.0624 
@<TRIPOS>BOND
     1    1    2 1    
     2    1   72 1    
     3    1   73 1    
     4    1   74 1    
     5    2    3 2    
     6    2    4 am   BACKBONE|DICT|INTERRES
     7    4    5 1    
     8    4   75 1    
     9    5    6 1    
    10    5   35 1    
    11    5   76 1    
    12    6    7 1    
    13    6   77 1    
    14    6   78 1    
    15    7    8 1    
    16    8    9 1    
    17    8   79 1    
    18    8   80 1    
    19    9   10 ar   
    20    9   14 ar   
    21   10   11 ar   
    22   10   81 1    
    23   11   12 ar   
    24   11   71 1    
    25   12   13 ar   
    26   12   82 1    
    27   13   14 ar   
    28   13   15 1    
    29   14   83 1    
    30   15   16 1    
    31   15   84 1    
    32   15   85 1    
    33   16   17 1    
    34   17   18 1    
    35   17   86 1    
    36   17   87 1    
    37   18   19 1    
    38   18   37 1    
    39   18   88 1    
    40   19   20 am   BACKBONE|DICT|INTERRES
    41   19   89 1    
    42   20   21 2    
    43   20   22 1    
    44   22   23 1    
    45   22   24 1    
    46   22   90 1    
    47   23   91 1    
    48   23   92 1    
    49   23   93 1    
    50   24   25 am   BACKBONE|DICT|INTERRES
    51   24   94 1    
    52   25   26 2    
    53   25   27 1    
    54   27   28 1    
    55   27   29 1    
    56   27   95 1    
    57   28   96 1    
    58   28   97 1    
    59   28   98 1    
    60   29   30 am   BACKBONE|DICT|INTERRES
    61   29   99 1    
    62   30   31 2    
    63   30   32 1    
    64   32   33 1    
    65   32   34 1    
    66   32  100 1    
    67   33  101 1    
    68   33  102 1    
    69   33  103 1    
    70   34   35 am   BACKBONE|DICT|INTERRES
    71   34  104 1    
    72   35   36 2    
    73   37   38 2    
    74   37   39 am   BACKBONE|DICT|INTERRES
    75   39   40 1    
    76   39  105 1    
    77   40   41 1    
    78   40   42 1    
    79   40  106 1    
    80   41  107 1    
    81   41  108 1    
    82   41  109 1    
    83   42   43 2    
    84   42   44 am   BACKBONE|DICT|INTERRES
    85   44   45 1    
    86   44  110 1    
    87   45   46 1    
    88   45   47 1    
    89   45  111 1    
    90   46  112 1    
    91   46  113 1    
    92   46  114 1    
    93   47   48 2    
    94   47   49 am   BACKBONE|DICT|INTERRES
    95   49   50 1    
    96   49  115 1    
    97   50   51 1    
    98   50   52 1    
    99   50  116 1    
   100   51  117 1    
   101   51  118 1    
   102   51  119 1    
   103   52   53 2    
   104   52   54 am   BACKBONE|DICT|INTERRES
   105   54   55 1    
   106   54  120 1    
   107   55   56 1    
   108   55   57 1    
   109   55  121 1    
   110   56  122 1    
   111   56  123 1    
   112   56  124 1    
   113   57   58 2    
   114   57   59 am   BACKBONE|DICT|INTERRES
   115   59   60 1    
   116   59  125 1    
   117   60   61 1    
   118   60   62 1    
   119   60  126 1    
   120   61  127 1    
   121   61  128 1    
   122   61  129 1    
   123   62   63 2    
   124   62   64 am   BACKBONE|DICT|INTERRES
   125   64   65 1    
   126   64  130 1    
   127   65   66 1    
   128   65   69 1    
   129   65  131 1    
   130   66   67 am   BACKBONE|DICT|INTERRES
   131   66   68 2    
   132   67  132 1    
   133   67  133 1    
   134   69   70 1    
   135   69  134 1    
   136   69  135 1    
   137   70   71 1    
   138   71  136 1    
   139   71  137 1    
@<TRIPOS>SUBSTRUCTURE
     1 UNK         1 GROUP             0       ****    0 ROOT    
