@<TRIPOS>MOLECULE
3R137
137   139    1
SMALL
USER_CHARGES


@<TRIPOS>ATOM
      1 CA         25.1524   -5.2140   -2.0046 C.3       0 UNK        -0.2020 
      2 C          25.7060   -4.1774   -1.0395 C.2       0 UNK         0.4855 
      3 O          25.0489   -3.8387   -0.0546 O.2       0 UNK        -0.5197 
      4 N          26.9118   -3.6660   -1.3115 N.am      1 UNK        -0.4892 
      5 CA         27.6702   -2.7665   -0.4324 C.3       1 UNK         0.0835 
      6 C6         29.1977   -2.8844   -0.6697 C.3       12 UNK        -0.0855 
      7 S7         29.7779   -4.6085   -0.4759 S.3       12 UNK        -0.2931 
      8 C8         31.2903   -4.6448   -1.4959 C.3       12 UNK         0.0378 
      9 C9         31.0844   -4.1561   -2.9264 C.ar      12 UNK        -0.0802 
     10 C10        31.9617   -3.2077   -3.4600 C.ar      12 UNK        -0.0944 
     11 C11        31.8013   -2.7409   -4.7666 C.ar      12 UNK        -0.0787 
     12 C12        30.7354   -3.2164   -5.5382 C.ar      12 UNK        -0.0862 
     13 C13        29.8487   -4.1676   -5.0190 C.ar      12 UNK        -0.0733 
     14 C14        30.0378   -4.6446   -3.7179 C.ar      12 UNK        -0.0832 
     15 C15        28.7117   -4.7058   -5.8777 C.3       12 UNK         0.0240 
     16 S16        27.0850   -4.0407   -5.3786 S.3       12 UNK        -0.2522 
     17 C17        26.2624   -3.8858   -7.0131 C.3       12 UNK        -0.0967 
     18 CA         26.1631   -2.4487   -7.6073 C.3       5 UNK         0.0660 
     19 N          24.9697   -1.7314   -7.1486 N.am      5 UNK        -0.4015 
     20 C          24.5784   -0.5284   -7.5991 C.2       4 UNK         0.4946 
     21 O          25.1228    0.0524   -8.5389 O.2       4 UNK        -0.5353 
     22 CA         23.4284    0.1844   -6.8616 C.3       4 UNK         0.0277 
     23 CB         22.1644    0.2009   -7.7362 C.3       4 UNK        -0.1981 
     24 N          23.0914   -0.3567   -5.5385 N.am      4 UNK        -0.4209 
     25 C          23.9217   -0.4730   -4.4922 C.2       3 UNK         0.4942 
     26 O          25.1217   -0.1874   -4.5299 O.2       3 UNK        -0.5208 
     27 CA         23.3031   -1.0993   -3.2318 C.3       3 UNK         0.0250 
     28 CB         23.0822   -2.6065   -3.4445 C.3       3 UNK        -0.1990 
     29 N          24.1334   -0.9154   -2.0426 N.am      3 UNK        -0.4232 
     30 C          24.3198    0.2398   -1.3897 C.2       2 UNK         0.4993 
     31 O          23.7754    1.2991   -1.7051 O.2       2 UNK        -0.5286 
     32 CA         25.2384    0.2056   -0.1533 C.3       2 UNK         0.0209 
     33 CB         24.4231    0.4353    1.1310 C.3       2 UNK        -0.1931 
     34 N          25.9629   -1.0636   -0.0285 N.am      2 UNK        -0.4546 
     35 C          27.1590   -1.3179   -0.5722 C.2       1 UNK         0.5154 
     36 O          27.8205   -0.4785   -1.1842 O.2       1 UNK        -0.5181 
     37 C          27.4501   -1.6150   -7.4156 C.2       5 UNK         0.5014 
     38 O          28.3296   -1.6632   -8.2739 O.2       5 UNK        -0.5248 
     39 N          27.5207   -0.8449   -6.3181 N.am      6 UNK        -0.4434 
     40 CA         28.6481    0.0271   -6.0025 C.3       6 UNK         0.0363 
     41 CB         28.5688    0.4613   -4.5317 C.3       6 UNK        -0.1936 
     42 C          28.7269    1.2422   -6.9366 C.2       6 UNK         0.5081 
     43 O          29.8239    1.6278   -7.3410 O.2       6 UNK        -0.5248 
     44 N          27.5619    1.7977   -7.2976 N.am      7 UNK        -0.4718 
     45 CA         27.4329    2.8821   -8.2726 C.3       7 UNK         0.0273 
     46 CB         26.0180    3.4791   -8.2033 C.3       7 UNK        -0.1935 
     47 C          27.7665    2.4164   -9.6989 C.2       7 UNK         0.5018 
     48 O          28.4246    3.1534  -10.4331 O.2       7 UNK        -0.5186 
     49 N          27.3329    1.1968  -10.0509 N.am      8 UNK        -0.4240 
     50 CA         27.6497    0.5344  -11.3172 C.3       8 UNK         0.0235 
     51 CB         26.7771   -0.7208  -11.4785 C.3       8 UNK        -0.2000 
     52 C          29.1426    0.1860  -11.4453 C.2       8 UNK         0.4941 
     53 O          29.7266    0.4275  -12.5026 O.2       8 UNK        -0.5273 
     54 N          29.7333   -0.3640  -10.3739 N.am      9 UNK        -0.4262 
     55 CA         31.1555   -0.7058  -10.2961 C.3       9 UNK         0.0264 
     56 CB         31.4079   -1.5972   -9.0698 C.3       9 UNK        -0.1955 
     57 C          32.0753    0.5242  -10.2469 C.2       9 UNK         0.5031 
     58 O          33.1652    0.4676  -10.8178 O.2       9 UNK        -0.5390 
     59 N          31.6280    1.5880   -9.5593 N.am      10 UNK        -0.4204 
     60 CA         32.3567    2.8224   -9.2483 C.3       10 UNK         0.0237 
     61 CB         32.6799    3.6236  -10.5276 C.3       10 UNK        -0.1985 
     62 C          33.5930    2.5125   -8.3866 C.2       10 UNK         0.4970 
     63 O          34.7255    2.6467   -8.8539 O.2       10 UNK        -0.4914 
     64 N          33.3312    2.0463   -7.1576 N.am      11 UNK        -0.4285 
     65 CA         34.3226    1.5069   -6.2083 C.3       11 UNK         0.1007 
     66 C          35.4916    2.4604   -5.8205 C.2       11 UNK         0.5703 
     67 N          35.3344    3.7750   -5.9213 N.am      11 UNK        -0.7361 
     68 O          36.5549    1.9956   -5.4163 O.2       11 UNK        -0.4986 
     69 C69        33.6610    0.9524   -4.9163 C.3       12 UNK        -0.0947 
     70 S70        32.1558   -0.0410   -5.1841 S.3       12 UNK        -0.2240 
     71 C71        32.7930   -1.7343   -5.3348 C.3       12 UNK         0.0194 
     72 H72        25.5990   -5.1252   -2.9941 H         1 UNK         0.0906 
     73 H73        25.3535   -6.2164   -1.6280 H         1 UNK         0.0906 
     74 H74        24.0736   -5.1046   -2.1079 H         1 UNK         0.0906 
     75 H75        27.3975   -3.9540   -2.1494 H         1 UNK         0.3140 
     76 H76        27.4887   -3.0658    0.6029 H         1 UNK         0.1085 
     77 H77        29.4509   -2.5156   -1.6649 H         1 UNK         0.0836 
     78 H78        29.7455   -2.2571    0.0360 H         1 UNK         0.0836 
     79 H79        32.0534   -4.0496   -0.9917 H         1 UNK         0.0731 
     80 H80        31.6694   -5.6671   -1.5258 H         1 UNK         0.0731 
     81 H81        32.7783   -2.8321   -2.8583 H         1 UNK         0.1312 
     82 H82        30.5999   -2.8507   -6.5463 H         1 UNK         0.1406 
     83 H83        29.3623   -5.3878   -3.3164 H         1 UNK         0.1631 
     84 H84        28.6852   -5.7946   -5.8157 H         1 UNK         0.0717 
     85 H85        28.9086   -4.4669   -6.9239 H         1 UNK         0.0717 
     86 H86        26.7820   -4.5266   -7.7272 H         1 UNK         0.0934 
     87 H87        25.2675   -4.3265   -6.9326 H         1 UNK         0.0934 
     88 H88        26.0334   -2.5628   -8.6856 H         1 UNK         0.0739 
     89 H89        24.4789   -2.1297   -6.3630 H         1 UNK         0.3093 
     90 H90        23.7503    1.2168   -6.7109 H         1 UNK         0.0818 
     91 H91        21.3755    0.8034   -7.2855 H         1 UNK         0.0819 
     92 H92        22.3729    0.6302   -8.7176 H         1 UNK         0.0819 
     93 H93        21.7718   -0.8038   -7.8978 H         1 UNK         0.0819 
     94 H94        22.1302   -0.6420   -5.4140 H         1 UNK         0.3041 
     95 H95        22.3385   -0.6214   -3.0476 H         1 UNK         0.0784 
     96 H96        22.3787   -2.7957   -4.2563 H         1 UNK         0.0793 
     97 H97        24.0129   -3.1160   -3.6970 H         1 UNK         0.0793 
     98 H98        22.6689   -3.0765   -2.5517 H         1 UNK         0.0793 
     99 H99        24.6456   -1.7213   -1.7186 H         1 UNK         0.3024 
    100 H100       25.9518    1.0265   -0.2591 H         1 UNK         0.1171 
    101 H101       25.0677    0.4626    2.0098 H         1 UNK         0.0786 
    102 H102       23.8910    1.3869    1.0924 H         1 UNK         0.0786 
    103 H103       23.6799   -0.3484    1.2833 H         1 UNK         0.0786 
    104 H104       25.4671   -1.8394    0.3993 H         1 UNK         0.2977 
    105 H105       26.7418   -0.8373   -5.6665 H         1 UNK         0.3127 
    106 H106       29.5585   -0.5552   -6.1416 H         1 UNK         0.0770 
    107 H107       27.6457    0.9997   -4.3142 H         1 UNK         0.0814 
    108 H108       29.4002    1.1175   -4.2719 H         1 UNK         0.0814 
    109 H109       28.6186   -0.4007   -3.8658 H         1 UNK         0.0814 
    110 H110       26.7071    1.3919   -6.9454 H         1 UNK         0.2983 
    111 H111       28.1470    3.6642   -8.0044 H         1 UNK         0.0947 
    112 H112       25.9168    4.3165   -8.8950 H         1 UNK         0.0806 
    113 H113       25.7944    3.8559   -7.2051 H         1 UNK         0.0806 
    114 H114       25.2530    2.7480   -8.4659 H         1 UNK         0.0806 
    115 H115       26.7288    0.6935   -9.4059 H         1 UNK         0.3000 
    116 H116       27.4000    1.2266  -12.1243 H         1 UNK         0.0850 
    117 H117       26.9617   -1.2027  -12.4394 H         1 UNK         0.0810 
    118 H118       25.7159   -0.4740  -11.4366 H         1 UNK         0.0810 
    119 H119       26.9791   -1.4568  -10.7004 H         1 UNK         0.0810 
    120 H120       29.1625   -0.6156   -9.5689 H         1 UNK         0.3040 
    121 H121       31.4124   -1.2776  -11.1903 H         1 UNK         0.0766 
    122 H122       31.1435   -1.0853   -8.1436 H         1 UNK         0.0812 
    123 H123       32.4593   -1.8790   -8.9994 H         1 UNK         0.0812 
    124 H124       30.8280   -2.5187   -9.1230 H         1 UNK         0.0812 
    125 H125       30.7497    1.4866   -9.0571 H         1 UNK         0.3205 
    126 H126       31.6870    3.4331   -8.6404 H         1 UNK         0.0754 
    127 H127       33.1472    4.5771  -10.2794 H         1 UNK         0.0769 
    128 H128       31.7739    3.8421  -11.0933 H         1 UNK         0.0769 
    129 H129       33.3649    3.0899  -11.1869 H         1 UNK         0.0769 
    130 H130       32.3654    1.9462   -6.8747 H         1 UNK         0.2981 
    131 H131       34.7842    0.6608   -6.7205 H         1 UNK         0.0541 
    132 H132       34.4665    4.1607   -6.2564 H         1 UNK         0.3459 
    133 H133       36.0961    4.3849   -5.6700 H         1 UNK         0.3459 
    134 H134       33.3670    1.7800   -4.2678 H         1 UNK         0.0612 
    135 H135       34.3786    0.3665   -4.3392 H         1 UNK         0.0612 
    136 H136       33.7490   -1.8230   -4.8174 H         1 UNK         0.0624 
    137 H137       32.9920   -1.9502   -6.3851 H         1 UNK         0.0624 
@<TRIPOS>BOND
     1    1    2 1    
     2    1   72 1    
     3    1   73 1    
     4    1   74 1    
     5    2    3 2    
     6    2    4 am   BACKBONE|DICT|INTERRES
     7    4    5 1    
     8    4   75 1    
     9    5    6 1    
    10    5   35 1    
    11    5   76 1    
    12    6    7 1    
    13    6   77 1    
    14    6   78 1    
    15    7    8 1    
    16    8    9 1    
    17    8   79 1    
    18    8   80 1    
    19    9   10 ar   
    20    9   14 ar   
    21   10   11 ar   
    22   10   81 1    
    23   11   12 ar   
    24   11   71 1    
    25   12   13 ar   
    26   12   82 1    
    27   13   14 ar   
    28   13   15 1    
    29   14   83 1    
    30   15   16 1    
    31   15   84 1    
    32   15   85 1    
    33   16   17 1    
    34   17   18 1    
    35   17   86 1    
    36   17   87 1    
    37   18   19 1    
    38   18   37 1    
    39   18   88 1    
    40   19   20 am   BACKBONE|DICT|INTERRES
    41   19   89 1    
    42   20   21 2    
    43   20   22 1    
    44   22   23 1    
    45   22   24 1    
    46   22   90 1    
    47   23   91 1    
    48   23   92 1    
    49   23   93 1    
    50   24   25 am   BACKBONE|DICT|INTERRES
    51   24   94 1    
    52   25   26 2    
    53   25   27 1    
    54   27   28 1    
    55   27   29 1    
    56   27   95 1    
    57   28   96 1    
    58   28   97 1    
    59   28   98 1    
    60   29   30 am   BACKBONE|DICT|INTERRES
    61   29   99 1    
    62   30   31 2    
    63   30   32 1    
    64   32   33 1    
    65   32   34 1    
    66   32  100 1    
    67   33  101 1    
    68   33  102 1    
    69   33  103 1    
    70   34   35 am   BACKBONE|DICT|INTERRES
    71   34  104 1    
    72   35   36 2    
    73   37   38 2    
    74   37   39 am   BACKBONE|DICT|INTERRES
    75   39   40 1    
    76   39  105 1    
    77   40   41 1    
    78   40   42 1    
    79   40  106 1    
    80   41  107 1    
    81   41  108 1    
    82   41  109 1    
    83   42   43 2    
    84   42   44 am   BACKBONE|DICT|INTERRES
    85   44   45 1    
    86   44  110 1    
    87   45   46 1    
    88   45   47 1    
    89   45  111 1    
    90   46  112 1    
    91   46  113 1    
    92   46  114 1    
    93   47   48 2    
    94   47   49 am   BACKBONE|DICT|INTERRES
    95   49   50 1    
    96   49  115 1    
    97   50   51 1    
    98   50   52 1    
    99   50  116 1    
   100   51  117 1    
   101   51  118 1    
   102   51  119 1    
   103   52   53 2    
   104   52   54 am   BACKBONE|DICT|INTERRES
   105   54   55 1    
   106   54  120 1    
   107   55   56 1    
   108   55   57 1    
   109   55  121 1    
   110   56  122 1    
   111   56  123 1    
   112   56  124 1    
   113   57   58 2    
   114   57   59 am   BACKBONE|DICT|INTERRES
   115   59   60 1    
   116   59  125 1    
   117   60   61 1    
   118   60   62 1    
   119   60  126 1    
   120   61  127 1    
   121   61  128 1    
   122   61  129 1    
   123   62   63 2    
   124   62   64 am   BACKBONE|DICT|INTERRES
   125   64   65 1    
   126   64  130 1    
   127   65   66 1    
   128   65   69 1    
   129   65  131 1    
   130   66   67 am   BACKBONE|DICT|INTERRES
   131   66   68 2    
   132   67  132 1    
   133   67  133 1    
   134   69   70 1    
   135   69  134 1    
   136   69  135 1    
   137   70   71 1    
   138   71  136 1    
   139   71  137 1    
@<TRIPOS>SUBSTRUCTURE
     1 UNK         1 GROUP             0       ****    0 ROOT    
