@<TRIPOS>MOLECULE
3R137
137   139    1
SMALL
USER_CHARGES


@<TRIPOS>ATOM
      1 CA         30.2838   -1.2737    1.7920 C.3       0 UNK        -0.2020 
      2 C          29.5857   -0.4143    0.7489 C.2       0 UNK         0.4855 
      3 O          29.5578    0.8092    0.8819 O.2       0 UNK        -0.5197 
      4 N          29.0224   -1.0452   -0.2893 N.am      1 UNK        -0.4892 
      5 CA         28.2803   -0.3855   -1.3717 C.3       1 UNK         0.0835 
      6 C6         28.1318   -1.3059   -2.6099 C.3       12 UNK        -0.0855 
      7 S7         27.3454   -2.9193   -2.2528 S.3       12 UNK        -0.2931 
      8 C8         28.7210   -4.0890   -2.4897 C.3       12 UNK         0.0378 
      9 C9         29.1764   -4.1447   -3.9403 C.ar      12 UNK        -0.0802 
     10 C10        30.4445   -3.6802   -4.2990 C.ar      12 UNK        -0.0944 
     11 C11        30.8670   -3.7188   -5.6313 C.ar      12 UNK        -0.0787 
     12 C12        30.0118   -4.2474   -6.6052 C.ar      12 UNK        -0.0862 
     13 C13        28.7408   -4.7187   -6.2582 C.ar      12 UNK        -0.0733 
     14 C14        28.3323   -4.6701   -4.9223 C.ar      12 UNK        -0.0832 
     15 C15        27.8225   -5.3120   -7.3190 C.3       12 UNK         0.0240 
     16 S16        27.0052   -4.0380   -8.3329 S.3       12 UNK        -0.2522 
     17 C17        25.7787   -3.3322   -7.1732 C.3       12 UNK        -0.0967 
     18 CA         25.4826   -1.8307   -7.4451 C.3       5 UNK         0.0660 
     19 N          24.4616   -1.2942   -6.5561 N.am      5 UNK        -0.4015 
     20 C          23.1437   -1.3407   -6.7652 C.2       4 UNK         0.4946 
     21 O          22.6233   -1.8921   -7.7374 O.2       4 UNK        -0.5353 
     22 CA         22.2635   -0.6722   -5.6890 C.3       4 UNK         0.0277 
     23 CB         20.7848   -0.5759   -6.1106 C.3       4 UNK        -0.1981 
     24 N          22.3451   -1.3698   -4.4024 N.am      4 UNK        -0.4209 
     25 C          23.3865   -1.3274   -3.5620 C.2       3 UNK         0.4942 
     26 O          24.4167   -0.6836   -3.7827 O.2       3 UNK        -0.5208 
     27 CA         23.2706   -2.1928   -2.2987 C.3       3 UNK         0.0250 
     28 CB         23.6414   -3.6519   -2.6147 C.3       3 UNK        -0.1990 
     29 N          24.1528   -1.6900   -1.2461 N.am      3 UNK        -0.4232 
     30 C          23.8452   -0.6876   -0.4107 C.2       2 UNK         0.4993 
     31 O          22.7411   -0.1421   -0.3749 O.2       2 UNK        -0.5286 
     32 CA         24.9445   -0.2130    0.5582 C.3       2 UNK         0.0209 
     33 CB         24.7568   -0.8536    1.9433 C.3       2 UNK        -0.1931 
     34 N          26.2966   -0.5037    0.0757 N.am      2 UNK        -0.4546 
     35 C          26.9104    0.1603   -0.9148 C.2       1 UNK         0.5154 
     36 O          26.4399    1.1582   -1.4625 O.2       1 UNK        -0.5181 
     37 C          26.6990   -0.8970   -7.3623 C.2       5 UNK         0.5014 
     38 O          26.7663    0.0701   -8.1240 O.2       5 UNK        -0.5248 
     39 N          27.6636   -1.2307   -6.4898 N.am      6 UNK        -0.4434 
     40 CA         28.9863   -0.6020   -6.3609 C.3       6 UNK         0.0363 
     41 CB         28.8641    0.8273   -5.7915 C.3       6 UNK        -0.1936 
     42 C          29.8153   -0.6472   -7.6651 C.2       6 UNK         0.5081 
     43 O          30.6761    0.2094   -7.8713 O.2       6 UNK        -0.5248 
     44 N          29.5131   -1.6194   -8.5419 N.am      7 UNK        -0.4718 
     45 CA         30.0156   -1.7653   -9.9132 C.3       7 UNK         0.0273 
     46 CB         31.5047   -2.1729   -9.9050 C.3       7 UNK        -0.1935 
     47 C          29.7257   -0.5193  -10.7767 C.2       7 UNK         0.5018 
     48 O          30.5955   -0.0765  -11.5253 O.2       7 UNK        -0.5186 
     49 N          28.5213    0.0537  -10.6119 N.am      8 UNK        -0.4240 
     50 CA         28.0739    1.3412  -11.1626 C.3       8 UNK         0.0235 
     51 CB         27.9916    1.3007  -12.7040 C.3       8 UNK        -0.2000 
     52 C          28.9180    2.5138  -10.6235 C.2       8 UNK         0.4941 
     53 O          29.3310    3.3884  -11.3862 O.2       8 UNK        -0.5273 
     54 N          29.1734    2.4751   -9.3073 N.am      9 UNK        -0.4262 
     55 CA         30.0039    3.3858   -8.5083 C.3       9 UNK         0.0264 
     56 CB         29.4615    4.8300   -8.5588 C.3       9 UNK        -0.1955 
     57 C          31.5167    3.3155   -8.8056 C.2       9 UNK         0.5031 
     58 O          32.2579    4.1621   -8.3028 O.2       9 UNK        -0.5390 
     59 N          31.9720    2.3147   -9.5740 N.am      10 UNK        -0.4204 
     60 CA         33.3817    2.1208   -9.9191 C.3       10 UNK         0.0237 
     61 CB         33.5109    1.1603  -11.1104 C.3       10 UNK        -0.1985 
     62 C          34.2464    1.6393   -8.7425 C.2       10 UNK         0.4970 
     63 O          35.4193    2.0137   -8.6956 O.2       10 UNK        -0.4914 
     64 N          33.6822    0.8396   -7.8223 N.am      11 UNK        -0.4285 
     65 CA         34.3885    0.3887   -6.6070 C.3       11 UNK         0.1007 
     66 C          34.2501    1.3554   -5.3927 C.2       11 UNK         0.5703 
     67 N          33.5562    2.4824   -5.5121 N.am      11 UNK        -0.7361 
     68 O          34.8065    1.0927   -4.3290 O.2       11 UNK        -0.4986 
     69 C69        34.1118   -1.1028   -6.2649 C.3       12 UNK        -0.0947 
     70 S70        32.4651   -1.4466   -5.5677 S.3       12 UNK        -0.2240 
     71 C71        32.2495   -3.2004   -6.0109 C.3       12 UNK         0.0194 
     72 H72        30.2379   -2.3343    1.5454 H         1 UNK         0.0906 
     73 H73        29.8184   -1.1319    2.7671 H         1 UNK         0.0906 
     74 H74        31.3328   -0.9895    1.8708 H         1 UNK         0.0906 
     75 H75        29.0691   -2.0524   -0.3500 H         1 UNK         0.3140 
     76 H76        28.8628    0.4851   -1.6830 H         1 UNK         0.1085 
     77 H77        27.5393   -0.8134   -3.3830 H         1 UNK         0.0836 
     78 H78        29.1136   -1.4653   -3.0562 H         1 UNK         0.0836 
     79 H79        28.3957   -5.0831   -2.1799 H         1 UNK         0.0731 
     80 H80        29.5463   -3.8178   -1.8298 H         1 UNK         0.0731 
     81 H81        31.1047   -3.2761   -3.5435 H         1 UNK         0.1312 
     82 H82        30.3330   -4.2935   -7.6367 H         1 UNK         0.1406 
     83 H83        27.3558   -5.0407   -4.6398 H         1 UNK         0.1631 
     84 H84        27.0646   -5.9520   -6.8642 H         1 UNK         0.0717 
     85 H85        28.4064   -5.9578   -7.9765 H         1 UNK         0.0717 
     86 H86        24.8584   -3.9080   -7.2844 H         1 UNK         0.0934 
     87 H87        26.0921   -3.4856   -6.1405 H         1 UNK         0.0934 
     88 H88        25.1175   -1.7504   -8.4718 H         1 UNK         0.0739 
     89 H89        24.7872   -0.8528   -5.6992 H         1 UNK         0.3093 
     90 H90        22.6346    0.3466   -5.5550 H         1 UNK         0.0818 
     91 H91        20.6825   -0.0401   -7.0554 H         1 UNK         0.0819 
     92 H92        20.3359   -1.5610   -6.2447 H         1 UNK         0.0819 
     93 H93        20.1948   -0.0359   -5.3698 H         1 UNK         0.0819 
     94 H94        21.5581   -1.9570   -4.1651 H         1 UNK         0.3041 
     95 H95        22.2382   -2.1642   -1.9430 H         1 UNK         0.0784 
     96 H96        23.6208   -4.2712   -1.7177 H         1 UNK         0.0793 
     97 H97        22.9386   -4.0896   -3.3246 H         1 UNK         0.0793 
     98 H98        24.6353   -3.7327   -3.0554 H         1 UNK         0.0793 
     99 H99        25.1037   -2.0321   -1.2576 H         1 UNK         0.3024 
    100 H100       24.8400    0.8697    0.6625 H         1 UNK         0.1171 
    101 H101       23.7671   -0.6310    2.3447 H         1 UNK         0.0786 
    102 H102       24.8558   -1.9392    1.9040 H         1 UNK         0.0786 
    103 H103       25.4872   -0.4742    2.6583 H         1 UNK         0.0786 
    104 H104       26.7691   -1.3016    0.4755 H         1 UNK         0.2977 
    105 H105       27.5288   -2.0598   -5.9275 H         1 UNK         0.3127 
    106 H106       29.5335   -1.1973   -5.6314 H         1 UNK         0.0770 
    107 H107       28.3462    1.4955   -6.4788 H         1 UNK         0.0814 
    108 H108       29.8482    1.2550   -5.5946 H         1 UNK         0.0814 
    109 H109       28.3175    0.8384   -4.8500 H         1 UNK         0.0814 
    110 H110       28.7964   -2.2797   -8.2705 H         1 UNK         0.2983 
    111 H111       29.4532   -2.5816  -10.3693 H         1 UNK         0.0947 
    112 H112       32.1289   -1.4293   -9.4099 H         1 UNK         0.0806 
    113 H113       31.8859   -2.2981  -10.9191 H         1 UNK         0.0806 
    114 H114       31.6494   -3.1225   -9.3920 H         1 UNK         0.0806 
    115 H115       27.8967   -0.3519   -9.9243 H         1 UNK         0.3000 
    116 H116       27.0621    1.4984  -10.7849 H         1 UNK         0.0850 
    117 H117       27.5350    2.2120  -13.0920 H         1 UNK         0.0810 
    118 H118       27.3849    0.4630  -13.0473 H         1 UNK         0.0810 
    119 H119       28.9764    1.2134  -13.1640 H         1 UNK         0.0810 
    120 H120       28.8052    1.6838   -8.7959 H         1 UNK         0.3040 
    121 H121       29.9041    3.0433   -7.4784 H         1 UNK         0.0766 
    122 H122       29.6015    5.2825   -9.5407 H         1 UNK         0.0812 
    123 H123       29.9733    5.4661   -7.8356 H         1 UNK         0.0812 
    124 H124       28.3984    4.8638   -8.3206 H         1 UNK         0.0812 
    125 H125       31.3144    1.6243   -9.9130 H         1 UNK         0.3205 
    126 H126       33.7763    3.0889  -10.2355 H         1 UNK         0.0754 
    127 H127       34.5482    1.0857  -11.4394 H         1 UNK         0.0769 
    128 H128       32.9241    1.5024  -11.9633 H         1 UNK         0.0769 
    129 H129       33.1795    0.1539  -10.8568 H         1 UNK         0.0769 
    130 H130       32.6977    0.5974   -7.8910 H         1 UNK         0.2981 
    131 H131       35.4575    0.4136   -6.8248 H         1 UNK         0.0541 
    132 H132       33.1295    2.7335   -6.3905 H         1 UNK         0.3459 
    133 H133       33.4855    3.1020   -4.7209 H         1 UNK         0.3459 
    134 H134       34.8522   -1.4616   -5.5479 H         1 UNK         0.0612 
    135 H135       34.2521   -1.7095   -7.1608 H         1 UNK         0.0612 
    136 H136       33.0091   -3.7953   -5.5022 H         1 UNK         0.0624 
    137 H137       32.4221   -3.3187   -7.0810 H         1 UNK         0.0624 
@<TRIPOS>BOND
     1    1    2 1    
     2    1   72 1    
     3    1   73 1    
     4    1   74 1    
     5    2    3 2    
     6    2    4 am   BACKBONE|DICT|INTERRES
     7    4    5 1    
     8    4   75 1    
     9    5    6 1    
    10    5   35 1    
    11    5   76 1    
    12    6    7 1    
    13    6   77 1    
    14    6   78 1    
    15    7    8 1    
    16    8    9 1    
    17    8   79 1    
    18    8   80 1    
    19    9   10 ar   
    20    9   14 ar   
    21   10   11 ar   
    22   10   81 1    
    23   11   12 ar   
    24   11   71 1    
    25   12   13 ar   
    26   12   82 1    
    27   13   14 ar   
    28   13   15 1    
    29   14   83 1    
    30   15   16 1    
    31   15   84 1    
    32   15   85 1    
    33   16   17 1    
    34   17   18 1    
    35   17   86 1    
    36   17   87 1    
    37   18   19 1    
    38   18   37 1    
    39   18   88 1    
    40   19   20 am   BACKBONE|DICT|INTERRES
    41   19   89 1    
    42   20   21 2    
    43   20   22 1    
    44   22   23 1    
    45   22   24 1    
    46   22   90 1    
    47   23   91 1    
    48   23   92 1    
    49   23   93 1    
    50   24   25 am   BACKBONE|DICT|INTERRES
    51   24   94 1    
    52   25   26 2    
    53   25   27 1    
    54   27   28 1    
    55   27   29 1    
    56   27   95 1    
    57   28   96 1    
    58   28   97 1    
    59   28   98 1    
    60   29   30 am   BACKBONE|DICT|INTERRES
    61   29   99 1    
    62   30   31 2    
    63   30   32 1    
    64   32   33 1    
    65   32   34 1    
    66   32  100 1    
    67   33  101 1    
    68   33  102 1    
    69   33  103 1    
    70   34   35 am   BACKBONE|DICT|INTERRES
    71   34  104 1    
    72   35   36 2    
    73   37   38 2    
    74   37   39 am   BACKBONE|DICT|INTERRES
    75   39   40 1    
    76   39  105 1    
    77   40   41 1    
    78   40   42 1    
    79   40  106 1    
    80   41  107 1    
    81   41  108 1    
    82   41  109 1    
    83   42   43 2    
    84   42   44 am   BACKBONE|DICT|INTERRES
    85   44   45 1    
    86   44  110 1    
    87   45   46 1    
    88   45   47 1    
    89   45  111 1    
    90   46  112 1    
    91   46  113 1    
    92   46  114 1    
    93   47   48 2    
    94   47   49 am   BACKBONE|DICT|INTERRES
    95   49   50 1    
    96   49  115 1    
    97   50   51 1    
    98   50   52 1    
    99   50  116 1    
   100   51  117 1    
   101   51  118 1    
   102   51  119 1    
   103   52   53 2    
   104   52   54 am   BACKBONE|DICT|INTERRES
   105   54   55 1    
   106   54  120 1    
   107   55   56 1    
   108   55   57 1    
   109   55  121 1    
   110   56  122 1    
   111   56  123 1    
   112   56  124 1    
   113   57   58 2    
   114   57   59 am   BACKBONE|DICT|INTERRES
   115   59   60 1    
   116   59  125 1    
   117   60   61 1    
   118   60   62 1    
   119   60  126 1    
   120   61  127 1    
   121   61  128 1    
   122   61  129 1    
   123   62   63 2    
   124   62   64 am   BACKBONE|DICT|INTERRES
   125   64   65 1    
   126   64  130 1    
   127   65   66 1    
   128   65   69 1    
   129   65  131 1    
   130   66   67 am   BACKBONE|DICT|INTERRES
   131   66   68 2    
   132   67  132 1    
   133   67  133 1    
   134   69   70 1    
   135   69  134 1    
   136   69  135 1    
   137   70   71 1    
   138   71  136 1    
   139   71  137 1    
@<TRIPOS>SUBSTRUCTURE
     1 UNK         1 GROUP             0       ****    0 ROOT    
