@<TRIPOS>MOLECULE
3R137
137   139    1
SMALL
USER_CHARGES


@<TRIPOS>ATOM
      1 CA         28.9886   -5.6695   -3.0921 C.3       0 UNK        -0.2020 
      2 C          28.5540   -4.4443   -2.3031 C.2       0 UNK         0.4855 
      3 O          28.6912   -3.3285   -2.7952 O.2       0 UNK        -0.5197 
      4 N          28.0058   -4.6475   -1.0967 N.am      1 UNK        -0.4892 
      5 CA         27.5910   -3.6338   -0.1045 C.3       1 UNK         0.0835 
      6 C6         28.7465   -2.7099    0.3713 C.3       12 UNK        -0.0855 
      7 S7         30.2164   -3.6449    0.9447 S.3       12 UNK        -0.2931 
      8 C8         31.6031   -2.4924    0.6457 C.3       12 UNK         0.0378 
      9 C9         31.6265   -1.9671   -0.7826 C.ar      12 UNK        -0.0802 
     10 C10        31.9691   -2.8083   -1.8467 C.ar      12 UNK        -0.0944 
     11 C11        31.8829   -2.3499   -3.1658 C.ar      12 UNK        -0.0787 
     12 C12        31.4658   -1.0380   -3.4120 C.ar      12 UNK        -0.0862 
     13 C13        31.1430   -0.1845   -2.3546 C.ar      12 UNK        -0.0733 
     14 C14        31.2430   -0.6480   -1.0416 C.ar      12 UNK        -0.0832 
     15 C15        30.6384    1.2227   -2.6297 C.3       12 UNK         0.0240 
     16 S16        28.8623    1.3953   -2.2536 S.3       12 UNK        -0.2522 
     17 C17        28.0932    0.1809   -3.3833 C.3       12 UNK        -0.0967 
     18 CA         28.0050    0.6582   -4.8538 C.3       5 UNK         0.0660 
     19 N          27.6181   -0.4326   -5.7521 N.am      5 UNK        -0.4015 
     20 C          27.7276   -0.3828   -7.0882 C.2       4 UNK         0.4946 
     21 O          28.2574    0.5473   -7.6963 O.2       4 UNK        -0.5353 
     22 CA         27.1235   -1.5445   -7.8970 C.3       4 UNK         0.0277 
     23 CB         28.1883   -2.6241   -8.1491 C.3       4 UNK        -0.1981 
     24 N          25.9481   -2.1565   -7.2719 N.am      4 UNK        -0.4209 
     25 C          24.8199   -1.5176   -6.9285 C.2       3 UNK         0.4942 
     26 O          24.6097   -0.3280   -7.1602 O.2       3 UNK        -0.5208 
     27 CA         23.7723   -2.3209   -6.1362 C.3       3 UNK         0.0250 
     28 CB         23.7855   -3.8301   -6.4677 C.3       3 UNK        -0.1990 
     29 N          23.8759   -2.1211   -4.6814 N.am      3 UNK        -0.4232 
     30 C          24.9654   -2.2887   -3.9149 C.2       2 UNK         0.4993 
     31 O          26.0898   -2.5148   -4.3695 O.2       2 UNK        -0.5286 
     32 CA         24.7814   -2.2075   -2.3892 C.3       2 UNK         0.0209 
     33 CB         23.4804   -2.8912   -1.9114 C.3       2 UNK        -0.1931 
     34 N          25.9475   -2.8441   -1.7801 N.am      2 UNK        -0.4546 
     35 C          26.3408   -2.8080   -0.5034 C.2       1 UNK         0.5154 
     36 O          25.7377   -2.1781    0.3671 O.2       1 UNK        -0.5181 
     37 C          27.0746    1.8786   -5.0177 C.2       5 UNK         0.5014 
     38 O          27.5645    3.0021   -5.1367 O.2       5 UNK        -0.5248 
     39 N          25.7556    1.6361   -5.0567 N.am      6 UNK        -0.4434 
     40 CA         24.7271    2.6670   -5.2264 C.3       6 UNK         0.0363 
     41 CB         23.3458    2.0753   -4.9016 C.3       6 UNK        -0.1936 
     42 C          24.7421    3.2882   -6.6332 C.2       6 UNK         0.5081 
     43 O          24.5504    4.4966   -6.7676 O.2       6 UNK        -0.5248 
     44 N          25.0012    2.4556   -7.6497 N.am      7 UNK        -0.4718 
     45 CA         25.1731    2.8602   -9.0469 C.3       7 UNK         0.0273 
     46 CB         25.0523    1.6126   -9.9375 C.3       7 UNK        -0.1935 
     47 C          26.5064    3.5808   -9.3254 C.2       7 UNK         0.5018 
     48 O          26.6314    4.2004  -10.3825 O.2       7 UNK        -0.5186 
     49 N          27.4729    3.4668   -8.3996 N.am      8 UNK        -0.4240 
     50 CA         28.8614    3.9362   -8.4894 C.3       8 UNK         0.0235 
     51 CB         28.9270    5.4780   -8.5122 C.3       8 UNK        -0.2000 
     52 C          29.6166    3.2752   -9.6599 C.2       8 UNK         0.4941 
     53 O          30.3202    3.9506  -10.4128 O.2       8 UNK        -0.5273 
     54 N          29.4440    1.9538   -9.7900 N.am      9 UNK        -0.4262 
     55 CA         29.9590    1.1273  -10.8840 C.3       9 UNK         0.0264 
     56 CB         28.8973    0.0691  -11.2352 C.3       9 UNK        -0.1955 
     57 C          31.3187    0.4767  -10.5649 C.2       9 UNK         0.5031 
     58 O          31.7184   -0.4464  -11.2766 O.2       9 UNK        -0.5390 
     59 N          31.9960    0.9370   -9.5001 N.am      10 UNK        -0.4204 
     60 CA         33.3208    0.5004   -9.0296 C.3       10 UNK         0.0237 
     61 CB         34.4195    0.9961   -9.9942 C.3       10 UNK        -0.1985 
     62 C          33.4038   -1.0166   -8.7586 C.2       10 UNK         0.4970 
     63 O          34.3933   -1.6570   -9.1186 O.2       10 UNK        -0.4914 
     64 N          32.3389   -1.5541   -8.1494 N.am      11 UNK        -0.4285 
     65 CA         32.1187   -2.9832   -7.8646 C.3       11 UNK         0.1007 
     66 C          31.8411   -3.8624   -9.1229 C.2       11 UNK         0.5703 
     67 N          31.6457   -3.2997  -10.3107 N.am      11 UNK        -0.7361 
     68 O          31.7606   -5.0837   -9.0154 O.2       11 UNK        -0.4986 
     69 C69        33.1886   -3.6168   -6.9225 C.3       12 UNK        -0.0947 
     70 S70        33.4860   -2.6502   -5.4047 S.3       12 UNK        -0.2240 
     71 C71        32.1611   -3.2857   -4.3324 C.3       12 UNK         0.0194 
     72 H72        30.0594   -5.6235   -3.2886 H         1 UNK         0.0906 
     73 H73        28.7801   -6.5962   -2.5580 H         1 UNK         0.0906 
     74 H74        28.4676   -5.7021   -4.0487 H         1 UNK         0.0906 
     75 H75        27.8960   -5.6006   -0.7788 H         1 UNK         0.3140 
     76 H76        27.2734   -4.2113    0.7652 H         1 UNK         0.1085 
     77 H77        28.4148   -2.0731    1.1935 H         1 UNK         0.0836 
     78 H78        29.0172   -2.0350   -0.4395 H         1 UNK         0.0836 
     79 H79        32.5424   -3.0051    0.8576 H         1 UNK         0.0731 
     80 H80        31.5373   -1.6696    1.3593 H         1 UNK         0.0731 
     81 H81        32.2522   -3.8326   -1.6469 H         1 UNK         0.1312 
     82 H82        31.3704   -0.6921   -4.4320 H         1 UNK         0.1406 
     83 H83        30.9650    0.0052   -0.2253 H         1 UNK         0.1631 
     84 H84        31.1983    1.9313   -2.0178 H         1 UNK         0.0717 
     85 H85        30.8199    1.5078   -3.6668 H         1 UNK         0.0717 
     86 H86        28.6534   -0.7525   -3.3261 H         1 UNK         0.0934 
     87 H87        27.1022   -0.0607   -2.9963 H         1 UNK         0.0934 
     88 H88        29.0041    0.9738   -5.1608 H         1 UNK         0.0739 
     89 H89        27.1776   -1.2455   -5.3256 H         1 UNK         0.3093 
     90 H90        26.8062   -1.1415   -8.8601 H         1 UNK         0.0818 
     91 H91        29.0746   -2.1988   -8.6209 H         1 UNK         0.0819 
     92 H92        27.8147   -3.4032   -8.8138 H         1 UNK         0.0819 
     93 H93        28.5089   -3.0992   -7.2208 H         1 UNK         0.0819 
     94 H94        26.0430   -3.1182   -6.9789 H         1 UNK         0.3041 
     95 H95        22.7999   -1.9279   -6.4375 H         1 UNK         0.0784 
     96 H96        23.7293   -3.9987   -7.5442 H         1 UNK         0.0793 
     97 H97        24.6812   -4.3309   -6.0986 H         1 UNK         0.0793 
     98 H98        22.9266   -4.3322   -6.0221 H         1 UNK         0.0793 
     99 H99        23.0056   -1.8994   -4.2183 H         1 UNK         0.3024 
    100 H100       24.7700   -1.1534   -2.1048 H         1 UNK         0.1171 
    101 H101       23.3987   -2.8864   -0.8246 H         1 UNK         0.0786 
    102 H102       22.5948   -2.3792   -2.2886 H         1 UNK         0.0786 
    103 H103       23.4288   -3.9297   -2.2414 H         1 UNK         0.0786 
    104 H104       26.5814   -3.2652   -2.4544 H         1 UNK         0.2977 
    105 H105       25.4356    0.6791   -5.0436 H         1 UNK         0.3127 
    106 H106       24.9310    3.4664   -4.5105 H         1 UNK         0.0770 
    107 H107       23.3069    1.6927   -3.8817 H         1 UNK         0.0814 
    108 H108       23.0826    1.2606   -5.5771 H         1 UNK         0.0814 
    109 H109       22.5679    2.8348   -4.9914 H         1 UNK         0.0814 
    110 H110       25.0545    1.4579   -7.4524 H         1 UNK         0.2983 
    111 H111       24.3676    3.5506   -9.3065 H         1 UNK         0.0947 
    112 H112       25.1175    1.8767  -10.9939 H         1 UNK         0.0806 
    113 H113       24.0982    1.1070   -9.7873 H         1 UNK         0.0806 
    114 H114       25.8474    0.8959   -9.7310 H         1 UNK         0.0806 
    115 H115       27.2570    2.9204   -7.5759 H         1 UNK         0.3000 
    116 H116       29.3545    3.5984   -7.5764 H         1 UNK         0.0850 
    117 H117       29.9595    5.8249   -8.4564 H         1 UNK         0.0810 
    118 H118       28.3943    5.9085   -7.6642 H         1 UNK         0.0810 
    119 H119       28.4955    5.8906   -9.4246 H         1 UNK         0.0810 
    120 H120       28.9016    1.4670   -9.0743 H         1 UNK         0.3040 
    121 H121       30.1095    1.7524  -11.7666 H         1 UNK         0.0766 
    122 H122       27.9400    0.5325  -11.4742 H         1 UNK         0.0812 
    123 H123       28.7368   -0.6268  -10.4129 H         1 UNK         0.0812 
    124 H124       29.1961   -0.5172  -12.1051 H         1 UNK         0.0812 
    125 H125       31.5665    1.6863   -8.9762 H         1 UNK         0.3205 
    126 H126       33.4840    0.9873   -8.0669 H         1 UNK         0.0754 
    127 H127       35.4140    0.7792   -9.6021 H         1 UNK         0.0769 
    128 H128       34.3599    2.0743  -10.1427 H         1 UNK         0.0769 
    129 H129       34.3431    0.5187  -10.9719 H         1 UNK         0.0769 
    130 H130       31.5740   -0.9418   -7.9103 H         1 UNK         0.2981 
    131 H131       31.1751   -3.0055   -7.3197 H         1 UNK         0.0541 
    132 H132       31.4550   -3.8925  -11.1021 H         1 UNK         0.3459 
    133 H133       31.7273   -2.2983  -10.4472 H         1 UNK         0.3459 
    134 H134       32.8953   -4.6271   -6.6314 H         1 UNK         0.0612 
    135 H135       34.1407   -3.7224   -7.4443 H         1 UNK         0.0612 
    136 H136       32.4349   -4.2820   -3.9822 H         1 UNK         0.0624 
    137 H137       31.2410   -3.3984   -4.9073 H         1 UNK         0.0624 
@<TRIPOS>BOND
     1    1    2 1    
     2    1   72 1    
     3    1   73 1    
     4    1   74 1    
     5    2    3 2    
     6    2    4 am   BACKBONE|DICT|INTERRES
     7    4    5 1    
     8    4   75 1    
     9    5    6 1    
    10    5   35 1    
    11    5   76 1    
    12    6    7 1    
    13    6   77 1    
    14    6   78 1    
    15    7    8 1    
    16    8    9 1    
    17    8   79 1    
    18    8   80 1    
    19    9   10 ar   
    20    9   14 ar   
    21   10   11 ar   
    22   10   81 1    
    23   11   12 ar   
    24   11   71 1    
    25   12   13 ar   
    26   12   82 1    
    27   13   14 ar   
    28   13   15 1    
    29   14   83 1    
    30   15   16 1    
    31   15   84 1    
    32   15   85 1    
    33   16   17 1    
    34   17   18 1    
    35   17   86 1    
    36   17   87 1    
    37   18   19 1    
    38   18   37 1    
    39   18   88 1    
    40   19   20 am   BACKBONE|DICT|INTERRES
    41   19   89 1    
    42   20   21 2    
    43   20   22 1    
    44   22   23 1    
    45   22   24 1    
    46   22   90 1    
    47   23   91 1    
    48   23   92 1    
    49   23   93 1    
    50   24   25 am   BACKBONE|DICT|INTERRES
    51   24   94 1    
    52   25   26 2    
    53   25   27 1    
    54   27   28 1    
    55   27   29 1    
    56   27   95 1    
    57   28   96 1    
    58   28   97 1    
    59   28   98 1    
    60   29   30 am   BACKBONE|DICT|INTERRES
    61   29   99 1    
    62   30   31 2    
    63   30   32 1    
    64   32   33 1    
    65   32   34 1    
    66   32  100 1    
    67   33  101 1    
    68   33  102 1    
    69   33  103 1    
    70   34   35 am   BACKBONE|DICT|INTERRES
    71   34  104 1    
    72   35   36 2    
    73   37   38 2    
    74   37   39 am   BACKBONE|DICT|INTERRES
    75   39   40 1    
    76   39  105 1    
    77   40   41 1    
    78   40   42 1    
    79   40  106 1    
    80   41  107 1    
    81   41  108 1    
    82   41  109 1    
    83   42   43 2    
    84   42   44 am   BACKBONE|DICT|INTERRES
    85   44   45 1    
    86   44  110 1    
    87   45   46 1    
    88   45   47 1    
    89   45  111 1    
    90   46  112 1    
    91   46  113 1    
    92   46  114 1    
    93   47   48 2    
    94   47   49 am   BACKBONE|DICT|INTERRES
    95   49   50 1    
    96   49  115 1    
    97   50   51 1    
    98   50   52 1    
    99   50  116 1    
   100   51  117 1    
   101   51  118 1    
   102   51  119 1    
   103   52   53 2    
   104   52   54 am   BACKBONE|DICT|INTERRES
   105   54   55 1    
   106   54  120 1    
   107   55   56 1    
   108   55   57 1    
   109   55  121 1    
   110   56  122 1    
   111   56  123 1    
   112   56  124 1    
   113   57   58 2    
   114   57   59 am   BACKBONE|DICT|INTERRES
   115   59   60 1    
   116   59  125 1    
   117   60   61 1    
   118   60   62 1    
   119   60  126 1    
   120   61  127 1    
   121   61  128 1    
   122   61  129 1    
   123   62   63 2    
   124   62   64 am   BACKBONE|DICT|INTERRES
   125   64   65 1    
   126   64  130 1    
   127   65   66 1    
   128   65   69 1    
   129   65  131 1    
   130   66   67 am   BACKBONE|DICT|INTERRES
   131   66   68 2    
   132   67  132 1    
   133   67  133 1    
   134   69   70 1    
   135   69  134 1    
   136   69  135 1    
   137   70   71 1    
   138   71  136 1    
   139   71  137 1    
@<TRIPOS>SUBSTRUCTURE
     1 UNK         1 GROUP             0       ****    0 ROOT    
