@<TRIPOS>MOLECULE
3R137
137   139    1
SMALL
USER_CHARGES


@<TRIPOS>ATOM
      1 CA         25.4800   -6.0155   -4.5958 C.3       0 UNK        -0.2020 
      2 C          25.4709   -5.0179   -3.4481 C.2       0 UNK         0.4855 
      3 O          24.4031   -4.5242   -3.0863 O.2       0 UNK        -0.5197 
      4 N          26.6538   -4.7135   -2.8946 N.am      1 UNK        -0.4892 
      5 CA         26.9215   -3.8286   -1.7508 C.3       1 UNK         0.0835 
      6 C6         28.4383   -3.5719   -1.5803 C.3       12 UNK        -0.0855 
      7 S7         29.4780   -5.0682   -1.5213 S.3       12 UNK        -0.2931 
      8 C8         31.0864   -4.3466   -1.0416 C.3       12 UNK         0.0378 
      9 C9         31.4529   -3.1317   -1.8876 C.ar      12 UNK        -0.0802 
     10 C10        31.9600   -3.2947   -3.1787 C.ar      12 UNK        -0.0944 
     11 C11        32.2626   -2.1807   -3.9679 C.ar      12 UNK        -0.0787 
     12 C12        32.0531   -0.8944   -3.4595 C.ar      12 UNK        -0.0862 
     13 C13        31.5421   -0.7174   -2.1681 C.ar      12 UNK        -0.0733 
     14 C14        31.2570   -1.8410   -1.3859 C.ar      12 UNK        -0.0832 
     15 C15        31.3172    0.6761   -1.5871 C.3       12 UNK         0.0240 
     16 S16        30.3858    1.8054   -2.6765 S.3       12 UNK        -0.2522 
     17 C17        28.8073    0.9260   -2.9536 C.3       12 UNK        -0.0967 
     18 CA         28.4459    0.8984   -4.4613 C.3       5 UNK         0.0660 
     19 N          27.7005   -0.3035   -4.8385 N.am      5 UNK        -0.4015 
     20 C          27.5616   -0.7201   -6.1039 C.2       4 UNK         0.4946 
     21 O          28.0346   -0.1242   -7.0737 O.2       4 UNK        -0.5353 
     22 CA         26.7308   -1.9896   -6.3355 C.3       4 UNK         0.0277 
     23 CB         27.5845   -3.2389   -6.0696 C.3       4 UNK        -0.1981 
     24 N          25.4941   -2.0460   -5.5472 N.am      4 UNK        -0.4209 
     25 C          24.4704   -1.1880   -5.6677 C.2       3 UNK         0.4942 
     26 O          24.5012   -0.1851   -6.3775 O.2       3 UNK        -0.5208 
     27 CA         23.2041   -1.4947   -4.8548 C.3       3 UNK         0.0250 
     28 CB         22.4698   -2.7234   -5.4166 C.3       3 UNK        -0.1990 
     29 N          23.5176   -1.7010   -3.4425 N.am      3 UNK        -0.4232 
     30 C          23.7431   -0.7012   -2.5773 C.2       2 UNK         0.4993 
     31 O          23.5930    0.4897   -2.8513 O.2       2 UNK        -0.5286 
     32 CA         24.2573   -1.0844   -1.1765 C.3       2 UNK         0.0209 
     33 CB         23.0834   -1.2477   -0.1976 C.3       2 UNK        -0.1931 
     34 N          25.0856   -2.2962   -1.1505 N.am      2 UNK        -0.4546 
     35 C          26.2045   -2.4683   -1.8679 C.2       1 UNK         0.5154 
     36 O          26.6603   -1.6149   -2.6316 O.2       1 UNK        -0.5181 
     37 C          27.7409    2.1961   -4.9221 C.2       5 UNK         0.5014 
     38 O          28.4142    3.2017   -5.1468 O.2       5 UNK        -0.5248 
     39 N          26.4095    2.1546   -5.0776 N.am      6 UNK        -0.4434 
     40 CA         25.6173    3.2531   -5.6267 C.3       6 UNK         0.0363 
     41 CB         24.1750    3.1632   -5.1008 C.3       6 UNK        -0.1936 
     42 C          25.6423    3.2565   -7.1637 C.2       6 UNK         0.5081 
     43 O          25.8652    4.3094   -7.7616 O.2       6 UNK        -0.5248 
     44 N          25.3843    2.0919   -7.7747 N.am      7 UNK        -0.4718 
     45 CA         25.2280    1.9333   -9.2209 C.3       7 UNK         0.0273 
     46 CB         24.4832    0.6206   -9.5161 C.3       7 UNK        -0.1935 
     47 C          26.5528    1.9834   -9.9943 C.2       7 UNK         0.5018 
     48 O          26.6217    2.6727  -11.0132 O.2       7 UNK        -0.5186 
     49 N          27.5610    1.2372   -9.5249 N.am      8 UNK        -0.4240 
     50 CA         28.8573    1.1005  -10.1902 C.3       8 UNK         0.0235 
     51 CB         29.2559   -0.3848  -10.2579 C.3       8 UNK        -0.2000 
     52 C          29.9422    1.9106   -9.4763 C.2       8 UNK         0.4941 
     53 O          30.7255    2.5801  -10.1519 O.2       8 UNK        -0.5273 
     54 N          29.9946    1.8147   -8.1379 N.am      9 UNK        -0.4262 
     55 CA         31.0188    2.3655   -7.2333 C.3       9 UNK         0.0264 
     56 CB         31.1025    3.9035   -7.3089 C.3       9 UNK        -0.1955 
     57 C          32.3924    1.7002   -7.4227 C.2       9 UNK         0.5031 
     58 O          32.8938    1.0615   -6.4977 O.2       9 UNK        -0.5390 
     59 N          32.9486    1.8139   -8.6328 N.am      10 UNK        -0.4204 
     60 CA         34.0774    1.0298   -9.1194 C.3       10 UNK         0.0237 
     61 CB         34.8736    1.8701  -10.1345 C.3       10 UNK        -0.1985 
     62 C          33.5083   -0.2569   -9.7352 C.2       10 UNK         0.4970 
     63 O          33.2596   -0.3011  -10.9413 O.2       10 UNK        -0.4914 
     64 N          33.2384   -1.2433   -8.8722 N.am      11 UNK        -0.4285 
     65 CA         32.6161   -2.5341   -9.2035 C.3       11 UNK         0.1007 
     66 C          33.3740   -3.3269  -10.3055 C.2       11 UNK         0.5703 
     67 N          32.6550   -3.9878  -11.2029 N.am      11 UNK        -0.7361 
     68 O          34.6026   -3.3849  -10.3220 O.2       11 UNK        -0.4986 
     69 C69        32.4421   -3.4199   -7.9433 C.3       12 UNK        -0.0947 
     70 S70        31.5112   -2.6155   -6.5933 S.3       12 UNK        -0.2240 
     71 C71        32.8314   -2.3791   -5.3627 C.3       12 UNK         0.0194 
     72 H72        26.4900   -6.3332   -4.8547 H         1 UNK         0.0906 
     73 H73        24.9057   -6.9008   -4.3241 H         1 UNK         0.0906 
     74 H74        25.0243   -5.5751   -5.4822 H         1 UNK         0.0906 
     75 H75        27.4831   -5.1720   -3.2466 H         1 UNK         0.3140 
     76 H76        26.5585   -4.3375   -0.8558 H         1 UNK         0.1085 
     77 H77        28.8081   -2.9659   -2.4106 H         1 UNK         0.0836 
     78 H78        28.6183   -2.9943   -0.6712 H         1 UNK         0.0836 
     79 H79        31.8613   -5.1087   -1.1372 H         1 UNK         0.0731 
     80 H80        31.0535   -4.0783    0.0155 H         1 UNK         0.0731 
     81 H81        32.1082   -4.2906   -3.5739 H         1 UNK         0.1312 
     82 H82        32.2851   -0.0318   -4.0699 H         1 UNK         0.1406 
     83 H83        30.8656   -1.7125   -0.3857 H         1 UNK         0.1631 
     84 H84        32.2889    1.1233   -1.3742 H         1 UNK         0.0717 
     85 H85        30.7922    0.6174   -0.6324 H         1 UNK         0.0717 
     86 H86        28.9103   -0.0916   -2.5748 H         1 UNK         0.0934 
     87 H87        28.0177    1.3831   -2.3539 H         1 UNK         0.0934 
     88 H88        29.3816    0.8294   -5.0167 H         1 UNK         0.0739 
     89 H89        27.2749   -0.8374   -4.0795 H         1 UNK         0.3093 
     90 H90        26.4429   -1.9974   -7.3890 H         1 UNK         0.0818 
     91 H91        27.9040   -3.2980   -5.0286 H         1 UNK         0.0819 
     92 H92        27.0440   -4.1519   -6.3161 H         1 UNK         0.0819 
     93 H93        28.4865   -3.2278   -6.6829 H         1 UNK         0.0819 
     94 H94        25.4027   -2.8071   -4.8920 H         1 UNK         0.3041 
     95 H95        22.5335   -0.6372   -4.9469 H         1 UNK         0.0784 
     96 H96        22.2193   -2.5793   -6.4685 H         1 UNK         0.0793 
     97 H97        23.0704   -3.6306   -5.3458 H         1 UNK         0.0793 
     98 H98        21.5357   -2.9013   -4.8836 H         1 UNK         0.0793 
     99 H99        23.6923   -2.6561   -3.1415 H         1 UNK         0.3024 
    100 H100       24.8811   -0.2567   -0.8313 H         1 UNK         0.1171 
    101 H101       22.4617   -0.3513   -0.1808 H         1 UNK         0.0786 
    102 H102       22.4411   -2.0849   -0.4742 H         1 UNK         0.0786 
    103 H103       23.4348   -1.4143    0.8208 H         1 UNK         0.0786 
    104 H104       24.7481   -3.0623   -0.5851 H         1 UNK         0.2977 
    105 H105       25.9238    1.2852   -4.9054 H         1 UNK         0.3127 
    106 H106       26.0360    4.2017   -5.2828 H         1 UNK         0.0770 
    107 H107       23.6909    2.2297   -5.3898 H         1 UNK         0.0814 
    108 H108       23.5666    3.9805   -5.4901 H         1 UNK         0.0814 
    109 H109       24.1464    3.2269   -4.0129 H         1 UNK         0.0814 
    110 H110       25.1710    1.2728   -7.2068 H         1 UNK         0.2983 
    111 H111       24.6069    2.7558   -9.5834 H         1 UNK         0.0947 
    112 H112       24.3301    0.4893  -10.5881 H         1 UNK         0.0806 
    113 H113       23.5005    0.6088   -9.0442 H         1 UNK         0.0806 
    114 H114       25.0355   -0.2481   -9.1552 H         1 UNK         0.0806 
    115 H115       27.4473    0.7353   -8.6475 H         1 UNK         0.3000 
    116 H116       28.7963    1.4681  -11.2170 H         1 UNK         0.0850 
    117 H117       30.2060   -0.5064  -10.7804 H         1 UNK         0.0810 
    118 H118       28.5118   -0.9690  -10.7992 H         1 UNK         0.0810 
    119 H119       29.3715   -0.8268   -9.2677 H         1 UNK         0.0810 
    120 H120       29.3204    1.1934   -7.6970 H         1 UNK         0.3040 
    121 H121       30.6982    2.1201   -6.2229 H         1 UNK         0.0766 
    122 H122       30.1309    4.3576   -7.1136 H         1 UNK         0.0812 
    123 H123       31.4483    4.2588   -8.2794 H         1 UNK         0.0812 
    124 H124       31.7948    4.2882   -6.5591 H         1 UNK         0.0812 
    125 H125       32.3826    2.2774   -9.3418 H         1 UNK         0.3205 
    126 H126       34.7439    0.7660   -8.2952 H         1 UNK         0.0754 
    127 H127       35.7049    1.2969  -10.5470 H         1 UNK         0.0769 
    128 H128       35.2935    2.7600   -9.6652 H         1 UNK         0.0769 
    129 H129       34.2533    2.1964  -10.9706 H         1 UNK         0.0769 
    130 H130       33.4287   -1.0895   -7.8929 H         1 UNK         0.2981 
    131 H131       31.6212   -2.3011   -9.5868 H         1 UNK         0.0541 
    132 H132       33.1308   -4.5204  -11.9142 H         1 UNK         0.3459 
    133 H133       31.6474   -3.9599  -11.1892 H         1 UNK         0.3459 
    134 H134       33.4159   -3.7481   -7.5757 H         1 UNK         0.0612 
    135 H135       31.9009   -4.3320   -8.2016 H         1 UNK         0.0612 
    136 H136       33.4473   -1.5262   -5.6504 H         1 UNK         0.0624 
    137 H137       33.4917   -3.2474   -5.3533 H         1 UNK         0.0624 
@<TRIPOS>BOND
     1    1    2 1    
     2    1   72 1    
     3    1   73 1    
     4    1   74 1    
     5    2    3 2    
     6    2    4 am   BACKBONE|DICT|INTERRES
     7    4    5 1    
     8    4   75 1    
     9    5    6 1    
    10    5   35 1    
    11    5   76 1    
    12    6    7 1    
    13    6   77 1    
    14    6   78 1    
    15    7    8 1    
    16    8    9 1    
    17    8   79 1    
    18    8   80 1    
    19    9   10 ar   
    20    9   14 ar   
    21   10   11 ar   
    22   10   81 1    
    23   11   12 ar   
    24   11   71 1    
    25   12   13 ar   
    26   12   82 1    
    27   13   14 ar   
    28   13   15 1    
    29   14   83 1    
    30   15   16 1    
    31   15   84 1    
    32   15   85 1    
    33   16   17 1    
    34   17   18 1    
    35   17   86 1    
    36   17   87 1    
    37   18   19 1    
    38   18   37 1    
    39   18   88 1    
    40   19   20 am   BACKBONE|DICT|INTERRES
    41   19   89 1    
    42   20   21 2    
    43   20   22 1    
    44   22   23 1    
    45   22   24 1    
    46   22   90 1    
    47   23   91 1    
    48   23   92 1    
    49   23   93 1    
    50   24   25 am   BACKBONE|DICT|INTERRES
    51   24   94 1    
    52   25   26 2    
    53   25   27 1    
    54   27   28 1    
    55   27   29 1    
    56   27   95 1    
    57   28   96 1    
    58   28   97 1    
    59   28   98 1    
    60   29   30 am   BACKBONE|DICT|INTERRES
    61   29   99 1    
    62   30   31 2    
    63   30   32 1    
    64   32   33 1    
    65   32   34 1    
    66   32  100 1    
    67   33  101 1    
    68   33  102 1    
    69   33  103 1    
    70   34   35 am   BACKBONE|DICT|INTERRES
    71   34  104 1    
    72   35   36 2    
    73   37   38 2    
    74   37   39 am   BACKBONE|DICT|INTERRES
    75   39   40 1    
    76   39  105 1    
    77   40   41 1    
    78   40   42 1    
    79   40  106 1    
    80   41  107 1    
    81   41  108 1    
    82   41  109 1    
    83   42   43 2    
    84   42   44 am   BACKBONE|DICT|INTERRES
    85   44   45 1    
    86   44  110 1    
    87   45   46 1    
    88   45   47 1    
    89   45  111 1    
    90   46  112 1    
    91   46  113 1    
    92   46  114 1    
    93   47   48 2    
    94   47   49 am   BACKBONE|DICT|INTERRES
    95   49   50 1    
    96   49  115 1    
    97   50   51 1    
    98   50   52 1    
    99   50  116 1    
   100   51  117 1    
   101   51  118 1    
   102   51  119 1    
   103   52   53 2    
   104   52   54 am   BACKBONE|DICT|INTERRES
   105   54   55 1    
   106   54  120 1    
   107   55   56 1    
   108   55   57 1    
   109   55  121 1    
   110   56  122 1    
   111   56  123 1    
   112   56  124 1    
   113   57   58 2    
   114   57   59 am   BACKBONE|DICT|INTERRES
   115   59   60 1    
   116   59  125 1    
   117   60   61 1    
   118   60   62 1    
   119   60  126 1    
   120   61  127 1    
   121   61  128 1    
   122   61  129 1    
   123   62   63 2    
   124   62   64 am   BACKBONE|DICT|INTERRES
   125   64   65 1    
   126   64  130 1    
   127   65   66 1    
   128   65   69 1    
   129   65  131 1    
   130   66   67 am   BACKBONE|DICT|INTERRES
   131   66   68 2    
   132   67  132 1    
   133   67  133 1    
   134   69   70 1    
   135   69  134 1    
   136   69  135 1    
   137   70   71 1    
   138   71  136 1    
   139   71  137 1    
@<TRIPOS>SUBSTRUCTURE
     1 UNK         1 GROUP             0       ****    0 ROOT    
