@<TRIPOS>MOLECULE
3R137
137   139    1
SMALL
USER_CHARGES


@<TRIPOS>ATOM
      1 CA         23.7679   -6.1208   -3.5328 C.3       0 UNK        -0.2020 
      2 C          24.6550   -5.2007   -2.7073 C.2       0 UNK         0.4855 
      3 O          24.1519   -4.2578   -2.0948 O.2       0 UNK        -0.5197 
      4 N          25.9682   -5.4732   -2.6894 N.am      1 UNK        -0.4892 
      5 CA         27.0101   -4.7379   -1.9601 C.3       1 UNK         0.0835 
      6 C6         28.3951   -5.4074   -2.1751 C.3       12 UNK        -0.0855 
      7 S7         29.8230   -4.4986   -1.4784 S.3       12 UNK        -0.2931 
      8 C8         30.5900   -3.9273   -3.0274 C.3       12 UNK         0.0378 
      9 C9         31.5114   -2.7360   -2.8263 C.ar      12 UNK        -0.0802 
     10 C10        32.8788   -2.8549   -3.0799 C.ar      12 UNK        -0.0944 
     11 C11        33.7097   -1.7317   -3.0370 C.ar      12 UNK        -0.0787 
     12 C12        33.1676   -0.4885   -2.6940 C.ar      12 UNK        -0.0862 
     13 C13        31.8052   -0.3630   -2.3992 C.ar      12 UNK        -0.0733 
     14 C14        30.9837   -1.4937   -2.4650 C.ar      12 UNK        -0.0832 
     15 C15        31.2317    0.9912   -1.9993 C.3       12 UNK         0.0240 
     16 S16        30.6518    1.9557   -3.4351 S.3       12 UNK        -0.2522 
     17 C17        28.9787    1.2775   -3.6833 C.3       12 UNK        -0.0967 
     18 CA         28.5491    1.2539   -5.1752 C.3       5 UNK         0.0660 
     19 N          27.8567    0.0096   -5.5152 N.am      5 UNK        -0.4015 
     20 C          27.5116   -0.3804   -6.7494 C.2       4 UNK         0.4946 
     21 O          27.7864    0.2398   -7.7767 O.2       4 UNK        -0.5353 
     22 CA         26.6722   -1.6638   -6.8392 C.3       4 UNK         0.0277 
     23 CB         27.5816   -2.9036   -6.8631 C.3       4 UNK        -0.1981 
     24 N          25.7112   -1.7635   -5.7341 N.am      4 UNK        -0.4209 
     25 C          24.6265   -0.9794   -5.6182 C.2       3 UNK         0.4942 
     26 O          24.3028   -0.1402   -6.4572 O.2       3 UNK        -0.5208 
     27 CA         23.7842   -1.1096   -4.3356 C.3       3 UNK         0.0250 
     28 CB         22.7360   -2.2210   -4.4912 C.3       3 UNK        -0.1990 
     29 N          24.5887   -1.3485   -3.1341 N.am      3 UNK        -0.4232 
     30 C          25.5129   -0.4956   -2.6649 C.2       2 UNK         0.4993 
     31 O          25.7326    0.6080   -3.1616 O.2       2 UNK        -0.5286 
     32 CA         26.3869   -0.9543   -1.4846 C.3       2 UNK         0.0209 
     33 CB         25.8392   -0.3895   -0.1650 C.3       2 UNK        -0.1931 
     34 N          26.5423   -2.4067   -1.3631 N.am      2 UNK        -0.4546 
     35 C          26.9861   -3.2351   -2.3201 C.2       1 UNK         0.5154 
     36 O          27.3142   -2.8650   -3.4507 O.2       1 UNK        -0.5181 
     37 C          27.6922    2.4827   -5.5451 C.2       5 UNK         0.5014 
     38 O          28.1799    3.3843   -6.2265 O.2       5 UNK        -0.5248 
     39 N          26.4151    2.4690   -5.1320 N.am      6 UNK        -0.4434 
     40 CA         25.4094    3.4920   -5.4353 C.3       6 UNK         0.0363 
     41 CB         24.1246    3.1942   -4.6466 C.3       6 UNK        -0.1936 
     42 C          25.1023    3.6211   -6.9373 C.2       6 UNK         0.5081 
     43 O          24.9094    4.7367   -7.4205 O.2       6 UNK        -0.5248 
     44 N          25.0994    2.4897   -7.6560 N.am      7 UNK        -0.4718 
     45 CA         24.9766    2.4253   -9.1164 C.3       7 UNK         0.0273 
     46 CB         24.5887    0.9933   -9.5217 C.3       7 UNK        -0.1935 
     47 C          26.2488    2.8667   -9.8682 C.2       7 UNK         0.5018 
     48 O          26.1961    2.9987  -11.0918 O.2       7 UNK        -0.5186 
     49 N          27.3591    3.0669   -9.1410 N.am      8 UNK        -0.4240 
     50 CA         28.7014    3.4082   -9.6216 C.3       8 UNK         0.0235 
     51 CB         28.7187    4.7972  -10.2949 C.3       8 UNK        -0.2000 
     52 C          29.3306    2.3065  -10.4947 C.2       8 UNK         0.4941 
     53 O          30.1556    2.6063  -11.3596 O.2       8 UNK        -0.5273 
     54 N          28.9825    1.0399  -10.2298 N.am      9 UNK        -0.4262 
     55 CA         29.4991   -0.1451  -10.9196 C.3       9 UNK         0.0264 
     56 CB         28.4147   -1.2391  -10.9009 C.3       9 UNK        -0.1955 
     57 C          30.8295   -0.6176  -10.3006 C.2       9 UNK         0.5031 
     58 O          31.0044   -1.8134  -10.0531 O.2       9 UNK        -0.5390 
     59 N          31.7358    0.3367  -10.0381 N.am      10 UNK        -0.4204 
     60 CA         33.0072    0.1857   -9.3235 C.3       10 UNK         0.0237 
     61 CB         34.0447   -0.5263  -10.2233 C.3       10 UNK        -0.1985 
     62 C          32.7915   -0.4718   -7.9440 C.2       10 UNK         0.4970 
     63 O          32.0115    0.0539   -7.1484 O.2       10 UNK        -0.4914 
     64 N          33.4574   -1.6054   -7.7084 N.am      11 UNK        -0.4285 
     65 CA         33.2778   -2.4793   -6.5417 C.3       11 UNK         0.1007 
     66 C          32.3408   -3.6912   -6.8303 C.2       11 UNK         0.5703 
     67 N          31.6106   -3.7340   -7.9394 N.am      11 UNK        -0.7361 
     68 O          32.2607   -4.6166   -6.0266 O.2       11 UNK        -0.4986 
     69 C69        34.6553   -2.9104   -5.9638 C.3       12 UNK        -0.0947 
     70 S70        35.5100   -1.5193   -5.1460 S.3       12 UNK        -0.2240 
     71 C71        35.1869   -1.8617   -3.3834 C.3       12 UNK         0.0194 
     72 H72        24.3275   -6.9518   -3.9614 H         1 UNK         0.0906 
     73 H73        22.9760   -6.5342   -2.9088 H         1 UNK         0.0906 
     74 H74        23.3035   -5.5693   -4.3489 H         1 UNK         0.0906 
     75 H75        26.3020   -6.2538   -3.2369 H         1 UNK         0.3140 
     76 H76        26.7729   -4.8285   -0.8979 H         1 UNK         0.1085 
     77 H77        28.5641   -5.5758   -3.2405 H         1 UNK         0.0836 
     78 H78        28.3885   -6.4013   -1.7247 H         1 UNK         0.0836 
     79 H79        29.8208   -3.6378   -3.7443 H         1 UNK         0.0731 
     80 H80        31.1251   -4.7629   -3.4815 H         1 UNK         0.0731 
     81 H81        33.2872   -3.8168   -3.3566 H         1 UNK         0.1312 
     82 H82        33.8066    0.3836   -2.6619 H         1 UNK         0.1406 
     83 H83        29.9285   -1.4184   -2.2459 H         1 UNK         0.1631 
     84 H84        31.9968    1.5713   -1.4811 H         1 UNK         0.0717 
     85 H85        30.4175    0.8657   -1.2837 H         1 UNK         0.0717 
     86 H86        28.9716    0.2654   -3.2870 H         1 UNK         0.0934 
     87 H87        28.2771    1.8297   -3.0540 H         1 UNK         0.0934 
     88 H88        29.4428    1.2781   -5.8039 H         1 UNK         0.0739 
     89 H89        27.5648   -0.5722   -4.7436 H         1 UNK         0.3093 
     90 H90        26.1140   -1.6335   -7.7774 H         1 UNK         0.0818 
     91 H91        28.1831   -2.9873   -5.9574 H         1 UNK         0.0819 
     92 H92        27.0008   -3.8203   -6.9657 H         1 UNK         0.0819 
     93 H93        28.2740   -2.8621   -7.7052 H         1 UNK         0.0819 
     94 H94        25.9581   -2.3836   -4.9701 H         1 UNK         0.3041 
     95 H95        23.2566   -0.1644   -4.1914 H         1 UNK         0.0784 
     96 H96        22.0760   -2.0176   -5.3356 H         1 UNK         0.0793 
     97 H97        23.2020   -3.1897   -4.6689 H         1 UNK         0.0793 
     98 H98        22.1100   -2.3068   -3.6027 H         1 UNK         0.0793 
     99 H99        24.4744   -2.2459   -2.6732 H         1 UNK         0.3024 
    100 H100       27.3820   -0.5368   -1.6443 H         1 UNK         0.1171 
    101 H101       25.7359    0.6956   -0.2173 H         1 UNK         0.0786 
    102 H102       26.5061   -0.6083    0.6692 H         1 UNK         0.0786 
    103 H103       24.8565   -0.7993    0.0722 H         1 UNK         0.0786 
    104 H104       26.2529   -2.8090   -0.4829 H         1 UNK         0.2977 
    105 H105       26.1128    1.7086   -4.5225 H         1 UNK         0.3127 
    106 H106       25.8053    4.4514   -5.0961 H         1 UNK         0.0770 
    107 H107       23.6905    2.2356   -4.9329 H         1 UNK         0.0814 
    108 H108       23.3699    3.9615   -4.8246 H         1 UNK         0.0814 
    109 H109       24.3145    3.1676   -3.5734 H         1 UNK         0.0814 
    110 H110       25.1856    1.6025   -7.1703 H         1 UNK         0.2983 
    111 H111       24.1724    3.0975   -9.4233 H         1 UNK         0.0947 
    112 H112       24.4438    0.9148  -10.6000 H         1 UNK         0.0806 
    113 H113       23.6567    0.6850   -9.0478 H         1 UNK         0.0806 
    114 H114       25.3603    0.2749   -9.2436 H         1 UNK         0.0806 
    115 H115       27.2940    2.9224   -8.1398 H         1 UNK         0.3000 
    116 H116       29.3278    3.4706   -8.7306 H         1 UNK         0.0850 
    117 H117       29.7398    5.1158  -10.5076 H         1 UNK         0.0810 
    118 H118       28.2721    5.5549   -9.6509 H         1 UNK         0.0810 
    119 H119       28.1765    4.7971  -11.2408 H         1 UNK         0.0810 
    120 H120       28.3916    0.8580   -9.4188 H         1 UNK         0.3040 
    121 H121       29.7007    0.1052  -11.9632 H         1 UNK         0.0766 
    122 H122       27.4871   -0.8856  -11.3514 H         1 UNK         0.0812 
    123 H123       28.1904   -1.5644   -9.8848 H         1 UNK         0.0812 
    124 H124       28.7339   -2.1176  -11.4630 H         1 UNK         0.0812 
    125 H125       31.4829    1.2828  -10.2989 H         1 UNK         0.3205 
    126 H126       33.3751    1.1934   -9.1249 H         1 UNK         0.0754 
    127 H127       35.0216   -0.5774   -9.7404 H         1 UNK         0.0769 
    128 H128       34.1845    0.0175  -11.1577 H         1 UNK         0.0769 
    129 H129       33.7415   -1.5419  -10.4812 H         1 UNK         0.0769 
    130 H130       34.0500   -1.9703   -8.4388 H         1 UNK         0.2981 
    131 H131       32.7547   -1.9218   -5.7635 H         1 UNK         0.0541 
    132 H132       31.0179   -4.5326   -8.0953 H         1 UNK         0.3459 
    133 H133       31.6019   -2.9712   -8.6106 H         1 UNK         0.3459 
    134 H134       34.5623   -3.7274   -5.2485 H         1 UNK         0.0612 
    135 H135       35.2977   -3.2932   -6.7583 H         1 UNK         0.0612 
    136 H136       35.7689   -1.1646   -2.7789 H         1 UNK         0.0624 
    137 H137       35.5525   -2.8588   -3.1333 H         1 UNK         0.0624 
@<TRIPOS>BOND
     1    1    2 1    
     2    1   72 1    
     3    1   73 1    
     4    1   74 1    
     5    2    3 2    
     6    2    4 am   BACKBONE|DICT|INTERRES
     7    4    5 1    
     8    4   75 1    
     9    5    6 1    
    10    5   35 1    
    11    5   76 1    
    12    6    7 1    
    13    6   77 1    
    14    6   78 1    
    15    7    8 1    
    16    8    9 1    
    17    8   79 1    
    18    8   80 1    
    19    9   10 ar   
    20    9   14 ar   
    21   10   11 ar   
    22   10   81 1    
    23   11   12 ar   
    24   11   71 1    
    25   12   13 ar   
    26   12   82 1    
    27   13   14 ar   
    28   13   15 1    
    29   14   83 1    
    30   15   16 1    
    31   15   84 1    
    32   15   85 1    
    33   16   17 1    
    34   17   18 1    
    35   17   86 1    
    36   17   87 1    
    37   18   19 1    
    38   18   37 1    
    39   18   88 1    
    40   19   20 am   BACKBONE|DICT|INTERRES
    41   19   89 1    
    42   20   21 2    
    43   20   22 1    
    44   22   23 1    
    45   22   24 1    
    46   22   90 1    
    47   23   91 1    
    48   23   92 1    
    49   23   93 1    
    50   24   25 am   BACKBONE|DICT|INTERRES
    51   24   94 1    
    52   25   26 2    
    53   25   27 1    
    54   27   28 1    
    55   27   29 1    
    56   27   95 1    
    57   28   96 1    
    58   28   97 1    
    59   28   98 1    
    60   29   30 am   BACKBONE|DICT|INTERRES
    61   29   99 1    
    62   30   31 2    
    63   30   32 1    
    64   32   33 1    
    65   32   34 1    
    66   32  100 1    
    67   33  101 1    
    68   33  102 1    
    69   33  103 1    
    70   34   35 am   BACKBONE|DICT|INTERRES
    71   34  104 1    
    72   35   36 2    
    73   37   38 2    
    74   37   39 am   BACKBONE|DICT|INTERRES
    75   39   40 1    
    76   39  105 1    
    77   40   41 1    
    78   40   42 1    
    79   40  106 1    
    80   41  107 1    
    81   41  108 1    
    82   41  109 1    
    83   42   43 2    
    84   42   44 am   BACKBONE|DICT|INTERRES
    85   44   45 1    
    86   44  110 1    
    87   45   46 1    
    88   45   47 1    
    89   45  111 1    
    90   46  112 1    
    91   46  113 1    
    92   46  114 1    
    93   47   48 2    
    94   47   49 am   BACKBONE|DICT|INTERRES
    95   49   50 1    
    96   49  115 1    
    97   50   51 1    
    98   50   52 1    
    99   50  116 1    
   100   51  117 1    
   101   51  118 1    
   102   51  119 1    
   103   52   53 2    
   104   52   54 am   BACKBONE|DICT|INTERRES
   105   54   55 1    
   106   54  120 1    
   107   55   56 1    
   108   55   57 1    
   109   55  121 1    
   110   56  122 1    
   111   56  123 1    
   112   56  124 1    
   113   57   58 2    
   114   57   59 am   BACKBONE|DICT|INTERRES
   115   59   60 1    
   116   59  125 1    
   117   60   61 1    
   118   60   62 1    
   119   60  126 1    
   120   61  127 1    
   121   61  128 1    
   122   61  129 1    
   123   62   63 2    
   124   62   64 am   BACKBONE|DICT|INTERRES
   125   64   65 1    
   126   64  130 1    
   127   65   66 1    
   128   65   69 1    
   129   65  131 1    
   130   66   67 am   BACKBONE|DICT|INTERRES
   131   66   68 2    
   132   67  132 1    
   133   67  133 1    
   134   69   70 1    
   135   69  134 1    
   136   69  135 1    
   137   70   71 1    
   138   71  136 1    
   139   71  137 1    
@<TRIPOS>SUBSTRUCTURE
     1 UNK         1 GROUP             0       ****    0 ROOT    
