@<TRIPOS>MOLECULE
3R137
137   139    1
SMALL
USER_CHARGES


@<TRIPOS>ATOM
      1 CA         30.7490   -6.5248   -3.9423 C.3       0 UNK        -0.2020 
      2 C          29.3551   -6.6847   -3.3535 C.2       0 UNK         0.4855 
      3 O          28.7767   -7.7694   -3.4299 O.2       0 UNK        -0.5197 
      4 N          28.8160   -5.6136   -2.7608 N.am      1 UNK        -0.4892 
      5 CA         27.4477   -5.5407   -2.2409 C.3       1 UNK         0.0835 
      6 C6         27.3254   -4.4690   -1.1232 C.3       12 UNK        -0.0855 
      7 S7         27.7754   -2.7730   -1.6426 S.3       12 UNK        -0.2931 
      8 C8         29.4247   -2.6077   -0.8918 C.3       12 UNK         0.0378 
      9 C9         30.1042   -1.3241   -1.3410 C.ar      12 UNK        -0.0802 
     10 C10        31.0391   -1.3417   -2.3810 C.ar      12 UNK        -0.0944 
     11 C11        31.6668   -0.1606   -2.7888 C.ar      12 UNK        -0.0787 
     12 C12        31.3557    1.0424   -2.1487 C.ar      12 UNK        -0.0862 
     13 C13        30.4138    1.0733   -1.1166 C.ar      12 UNK        -0.0733 
     14 C14        29.7984   -0.1152   -0.7109 C.ar      12 UNK        -0.0832 
     15 C15        30.0461    2.3913   -0.4479 C.3       12 UNK         0.0240 
     16 S16        29.1991    3.5417   -1.5829 S.3       12 UNK        -0.2522 
     17 C17        27.8512    2.5117   -2.2574 C.3       12 UNK        -0.0967 
     18 CA         28.0481    2.2338   -3.7764 C.3       5 UNK         0.0660 
     19 N          27.8227    0.8233   -4.1109 N.am      5 UNK        -0.4015 
     20 C          27.9975    0.2743   -5.3224 C.2       4 UNK         0.4946 
     21 O          28.4201    0.8863   -6.3020 O.2       4 UNK        -0.5353 
     22 CA         27.5503   -1.1873   -5.4992 C.3       4 UNK         0.0277 
     23 CB         28.7371   -2.1386   -5.2769 C.3       4 UNK        -0.1981 
     24 N          26.4114   -1.5788   -4.6569 N.am      4 UNK        -0.4209 
     25 C          25.2225   -0.9528   -4.6328 C.2       3 UNK         0.4942 
     26 O          24.9666    0.0347   -5.3264 O.2       3 UNK        -0.5208 
     27 CA         24.1738   -1.4728   -3.6291 C.3       3 UNK         0.0250 
     28 CB         22.7561   -0.9265   -3.9056 C.3       3 UNK        -0.1990 
     29 N          24.1630   -2.9344   -3.4945 N.am      3 UNK        -0.4232 
     30 C          23.8745   -3.8416   -4.4416 C.2       2 UNK         0.4993 
     31 O          23.5282   -3.5571   -5.5895 O.2       2 UNK        -0.5286 
     32 CA         24.0103   -5.3217   -4.0185 C.3       2 UNK         0.0209 
     33 CB         24.0484   -6.2889   -5.2221 C.3       2 UNK        -0.1931 
     34 N          25.1535   -5.5637   -3.1210 N.am      2 UNK        -0.4546 
     35 C          26.4422   -5.2975   -3.3871 C.2       1 UNK         0.5154 
     36 O          26.8340   -4.8284   -4.4581 O.2       1 UNK        -0.5181 
     37 C          27.1893    3.2030   -4.6213 C.2       5 UNK         0.5014 
     38 O          27.6654    4.2839   -4.9714 O.2       5 UNK        -0.5248 
     39 N          25.9435    2.8067   -4.9266 N.am      6 UNK        -0.4434 
     40 CA         25.0117    3.5832   -5.7455 C.3       6 UNK         0.0363 
     41 CB         23.5662    3.2023   -5.3852 C.3       6 UNK        -0.1936 
     42 C          25.2682    3.3803   -7.2460 C.2       6 UNK         0.5081 
     43 O          25.1119    4.3284   -8.0159 O.2       6 UNK        -0.5248 
     44 N          25.6583    2.1580   -7.6368 N.am      7 UNK        -0.4718 
     45 CA         26.0137    1.8075   -9.0151 C.3       7 UNK         0.0273 
     46 CB         26.0749    0.2790   -9.1562 C.3       7 UNK        -0.1935 
     47 C          27.3376    2.4441   -9.4729 C.2       7 UNK         0.5018 
     48 O          27.4610    2.7961  -10.6469 O.2       7 UNK        -0.5186 
     49 N          28.3010    2.5626   -8.5469 N.am      8 UNK        -0.4240 
     50 CA         29.6494    3.1317   -8.6686 C.3       8 UNK         0.0235 
     51 CB         29.6127    4.6126   -9.0924 C.3       8 UNK        -0.2000 
     52 C          30.5944    2.3091   -9.5587 C.2       8 UNK         0.4941 
     53 O          31.6814    1.9478   -9.1099 O.2       8 UNK        -0.5273 
     54 N          30.1605    1.9873  -10.7848 N.am      9 UNK        -0.4262 
     55 CA         30.8876    1.1579  -11.7533 C.3       9 UNK         0.0264 
     56 CB         30.1244    1.1467  -13.0870 C.3       9 UNK        -0.1955 
     57 C          31.1350   -0.2792  -11.2600 C.2       9 UNK         0.5031 
     58 O          32.1489   -0.8800  -11.6184 O.2       9 UNK        -0.5390 
     59 N          30.2299   -0.7823  -10.4086 N.am      10 UNK        -0.4204 
     60 CA         30.3179   -2.0763   -9.7280 C.3       10 UNK         0.0237 
     61 CB         29.0130   -2.3161   -8.9543 C.3       10 UNK        -0.1985 
     62 C          31.5303   -2.2122   -8.7864 C.2       10 UNK         0.4970 
     63 O          31.9578   -3.3383   -8.5305 O.2       10 UNK        -0.4914 
     64 N          32.0685   -1.0842   -8.3028 N.am      11 UNK        -0.4285 
     65 CA         33.3039   -1.0282   -7.5082 C.3       11 UNK         0.1007 
     66 C          34.6037   -1.1695   -8.3555 C.2       11 UNK         0.5703 
     67 N          34.5495   -1.1775   -9.6839 N.am      11 UNK        -0.7361 
     68 O          35.6893   -1.2888   -7.7923 O.2       11 UNK        -0.4986 
     69 C69        33.3550    0.2357   -6.6101 C.3       12 UNK        -0.0947 
     70 S70        31.9269    0.3605   -5.4822 S.3       12 UNK        -0.2240 
     71 C71        32.6814   -0.1783   -3.9200 C.3       12 UNK         0.0194 
     72 H72        30.7278   -6.7237   -5.0136 H         1 UNK         0.0906 
     73 H73        31.1430   -5.5196   -3.7929 H         1 UNK         0.0906 
     74 H74        31.4366   -7.2312   -3.4777 H         1 UNK         0.0906 
     75 H75        29.3057   -4.7317   -2.7841 H         1 UNK         0.3140 
     76 H76        27.2010   -6.5095   -1.7998 H         1 UNK         0.1085 
     77 H77        27.9473   -4.7604   -0.2752 H         1 UNK         0.0836 
     78 H78        26.3082   -4.4429   -0.7283 H         1 UNK         0.0836 
     79 H79        30.0398   -3.4697   -1.1531 H         1 UNK         0.0731 
     80 H80        29.3298   -2.6170    0.1953 H         1 UNK         0.0731 
     81 H81        31.2766   -2.2731   -2.8764 H         1 UNK         0.1312 
     82 H82        31.8306    1.9600   -2.4687 H         1 UNK         0.1406 
     83 H83        29.0686   -0.1012    0.0875 H         1 UNK         0.1631 
     84 H84        30.9520    2.8684   -0.0714 H         1 UNK         0.0717 
     85 H85        29.4070    2.2213    0.4199 H         1 UNK         0.0717 
     86 H86        27.7977    1.5826   -1.6905 H         1 UNK         0.0934 
     87 H87        26.9018    3.0087   -2.0451 H         1 UNK         0.0934 
     88 H88        29.0900    2.4232   -4.0458 H         1 UNK         0.0739 
     89 H89        27.4901    0.2276   -3.3677 H         1 UNK         0.3093 
     90 H90        27.2192   -1.2978   -6.5319 H         1 UNK         0.0818 
     91 H91        29.0362   -2.1718   -4.2310 H         1 UNK         0.0819 
     92 H92        28.4986   -3.1533   -5.5934 H         1 UNK         0.0819 
     93 H93        29.6097   -1.8221   -5.8506 H         1 UNK         0.0819 
     94 H94        26.5398   -2.4027   -4.0839 H         1 UNK         0.3041 
     95 H95        24.4836   -1.0867   -2.6568 H         1 UNK         0.0784 
     96 H96        22.7396    0.1629   -3.8536 H         1 UNK         0.0793 
     97 H97        22.3997   -1.2073   -4.8972 H         1 UNK         0.0793 
     98 H98        22.0379   -1.2947   -3.1732 H         1 UNK         0.0793 
     99 H99        24.4418   -3.2863   -2.5892 H         1 UNK         0.3024 
    100 H100       23.1097   -5.5496   -3.4454 H         1 UNK         0.1171 
    101 H101       24.1248   -7.3260   -4.8959 H         1 UNK         0.0786 
    102 H102       23.1402   -6.2054   -5.8205 H         1 UNK         0.0786 
    103 H103       24.8915   -6.0817   -5.8821 H         1 UNK         0.0786 
    104 H104       24.9189   -5.9403   -2.2120 H         1 UNK         0.2977 
    105 H105       25.6450    1.8698   -4.6783 H         1 UNK         0.3127 
    106 H106       25.1439    4.6446   -5.5236 H         1 UNK         0.0770 
    107 H107       23.3521    2.1567   -5.6089 H         1 UNK         0.0814 
    108 H108       22.8545    3.8063   -5.9496 H         1 UNK         0.0814 
    109 H109       23.3636    3.3677   -4.3271 H         1 UNK         0.0814 
    110 H110       25.7222    1.4263   -6.9392 H         1 UNK         0.2983 
    111 H111       25.2251    2.1797   -9.6730 H         1 UNK         0.0947 
    112 H112       26.2793   -0.0103  -10.1880 H         1 UNK         0.0806 
    113 H113       25.1310   -0.1856   -8.8697 H         1 UNK         0.0806 
    114 H114       26.8608   -0.1486   -8.5357 H         1 UNK         0.0806 
    115 H115       28.1260    2.1206   -7.6450 H         1 UNK         0.3000 
    116 H116       30.0650    3.0931   -7.6598 H         1 UNK         0.0850 
    117 H117       30.6147    5.0434   -9.0821 H         1 UNK         0.0810 
    118 H118       28.9992    5.2014   -8.4102 H         1 UNK         0.0810 
    119 H119       29.2145    4.7442  -10.0988 H         1 UNK         0.0810 
    120 H120       29.2335    2.3160  -11.0472 H         1 UNK         0.3040 
    121 H121       31.8635    1.6194  -11.9175 H         1 UNK         0.0766 
    122 H122       30.6513    0.5507  -13.8336 H         1 UNK         0.0812 
    123 H123       30.0204    2.1532  -13.4926 H         1 UNK         0.0812 
    124 H124       29.1246    0.7243  -12.9773 H         1 UNK         0.0812 
    125 H125       29.4380   -0.2021  -10.1764 H         1 UNK         0.3205 
    126 H126       30.4140   -2.8482  -10.4943 H         1 UNK         0.0754 
    127 H127       28.8495   -1.5347   -8.2130 H         1 UNK         0.0769 
    128 H128       29.0364   -3.2704   -8.4257 H         1 UNK         0.0769 
    129 H129       28.1505   -2.3368   -9.6208 H         1 UNK         0.0769 
    130 H130       31.6830   -0.1868   -8.5690 H         1 UNK         0.2981 
    131 H131       33.3014   -1.8898   -6.8378 H         1 UNK         0.0541 
    132 H132       33.6687   -1.0874  -10.1759 H         1 UNK         0.3459 
    133 H133       35.4047   -1.2761  -10.2071 H         1 UNK         0.3459 
    134 H134       33.3802    1.1369   -7.2241 H         1 UNK         0.0612 
    135 H135       34.2727    0.2524   -6.0195 H         1 UNK         0.0612 
    136 H136       33.5173    0.4783   -3.6741 H         1 UNK         0.0624 
    137 H137       33.0966   -1.1794   -4.0470 H         1 UNK         0.0624 
@<TRIPOS>BOND
     1    1    2 1    
     2    1   72 1    
     3    1   73 1    
     4    1   74 1    
     5    2    3 2    
     6    2    4 am   BACKBONE|DICT|INTERRES
     7    4    5 1    
     8    4   75 1    
     9    5    6 1    
    10    5   35 1    
    11    5   76 1    
    12    6    7 1    
    13    6   77 1    
    14    6   78 1    
    15    7    8 1    
    16    8    9 1    
    17    8   79 1    
    18    8   80 1    
    19    9   10 ar   
    20    9   14 ar   
    21   10   11 ar   
    22   10   81 1    
    23   11   12 ar   
    24   11   71 1    
    25   12   13 ar   
    26   12   82 1    
    27   13   14 ar   
    28   13   15 1    
    29   14   83 1    
    30   15   16 1    
    31   15   84 1    
    32   15   85 1    
    33   16   17 1    
    34   17   18 1    
    35   17   86 1    
    36   17   87 1    
    37   18   19 1    
    38   18   37 1    
    39   18   88 1    
    40   19   20 am   BACKBONE|DICT|INTERRES
    41   19   89 1    
    42   20   21 2    
    43   20   22 1    
    44   22   23 1    
    45   22   24 1    
    46   22   90 1    
    47   23   91 1    
    48   23   92 1    
    49   23   93 1    
    50   24   25 am   BACKBONE|DICT|INTERRES
    51   24   94 1    
    52   25   26 2    
    53   25   27 1    
    54   27   28 1    
    55   27   29 1    
    56   27   95 1    
    57   28   96 1    
    58   28   97 1    
    59   28   98 1    
    60   29   30 am   BACKBONE|DICT|INTERRES
    61   29   99 1    
    62   30   31 2    
    63   30   32 1    
    64   32   33 1    
    65   32   34 1    
    66   32  100 1    
    67   33  101 1    
    68   33  102 1    
    69   33  103 1    
    70   34   35 am   BACKBONE|DICT|INTERRES
    71   34  104 1    
    72   35   36 2    
    73   37   38 2    
    74   37   39 am   BACKBONE|DICT|INTERRES
    75   39   40 1    
    76   39  105 1    
    77   40   41 1    
    78   40   42 1    
    79   40  106 1    
    80   41  107 1    
    81   41  108 1    
    82   41  109 1    
    83   42   43 2    
    84   42   44 am   BACKBONE|DICT|INTERRES
    85   44   45 1    
    86   44  110 1    
    87   45   46 1    
    88   45   47 1    
    89   45  111 1    
    90   46  112 1    
    91   46  113 1    
    92   46  114 1    
    93   47   48 2    
    94   47   49 am   BACKBONE|DICT|INTERRES
    95   49   50 1    
    96   49  115 1    
    97   50   51 1    
    98   50   52 1    
    99   50  116 1    
   100   51  117 1    
   101   51  118 1    
   102   51  119 1    
   103   52   53 2    
   104   52   54 am   BACKBONE|DICT|INTERRES
   105   54   55 1    
   106   54  120 1    
   107   55   56 1    
   108   55   57 1    
   109   55  121 1    
   110   56  122 1    
   111   56  123 1    
   112   56  124 1    
   113   57   58 2    
   114   57   59 am   BACKBONE|DICT|INTERRES
   115   59   60 1    
   116   59  125 1    
   117   60   61 1    
   118   60   62 1    
   119   60  126 1    
   120   61  127 1    
   121   61  128 1    
   122   61  129 1    
   123   62   63 2    
   124   62   64 am   BACKBONE|DICT|INTERRES
   125   64   65 1    
   126   64  130 1    
   127   65   66 1    
   128   65   69 1    
   129   65  131 1    
   130   66   67 am   BACKBONE|DICT|INTERRES
   131   66   68 2    
   132   67  132 1    
   133   67  133 1    
   134   69   70 1    
   135   69  134 1    
   136   69  135 1    
   137   70   71 1    
   138   71  136 1    
   139   71  137 1    
@<TRIPOS>SUBSTRUCTURE
     1 UNK         1 GROUP             0       ****    0 ROOT    
