@<TRIPOS>MOLECULE
3R137
137   139    1
SMALL
USER_CHARGES


@<TRIPOS>ATOM
      1 CA         26.3644   -6.7323   -4.8945 C.3       0 UNK        -0.2020 
      2 C          26.2535   -5.8905   -3.6328 C.2       0 UNK         0.4855 
      3 O          25.1409   -5.5983   -3.1927 O.2       0 UNK        -0.5197 
      4 N          27.3986   -5.4914   -3.0583 N.am      1 UNK        -0.4892 
      5 CA         27.5239   -4.6200   -1.8816 C.3       1 UNK         0.0835 
      6 C6         29.0177   -4.3770   -1.5399 C.3       12 UNK        -0.0855 
      7 S7         29.2688   -3.4290    0.0017 S.3       12 UNK        -0.2931 
      8 C8         30.9995   -2.8817   -0.1719 C.3       12 UNK         0.0378 
      9 C9         31.1955   -1.8513   -1.2794 C.ar      12 UNK        -0.0802 
     10 C10        31.9323   -2.1779   -2.4230 C.ar      12 UNK        -0.0944 
     11 C11        32.1708   -1.2275   -3.4215 C.ar      12 UNK        -0.0787 
     12 C12        31.6375    0.0587   -3.2708 C.ar      12 UNK        -0.0862 
     13 C13        30.8894    0.4006   -2.1408 C.ar      12 UNK        -0.0733 
     14 C14        30.6861   -0.5562   -1.1394 C.ar      12 UNK        -0.0832 
     15 C15        30.3523    1.8242   -2.0089 C.3       12 UNK         0.0240 
     16 S16        28.6102    1.9422   -1.4743 S.3       12 UNK        -0.2522 
     17 C17        27.7473    0.6913   -2.4837 C.3       12 UNK        -0.0967 
     18 CA         27.8784    0.8388   -4.0210 C.3       5 UNK         0.0660 
     19 N          27.5502   -0.4290   -4.6790 N.am      5 UNK        -0.4015 
     20 C          27.6003   -0.6986   -5.9893 C.2       4 UNK         0.4946 
     21 O          27.9822    0.1028   -6.8385 O.2       4 UNK        -0.5353 
     22 CA         27.0874   -2.0778   -6.4315 C.3       4 UNK         0.0277 
     23 CB         28.1637   -3.1589   -6.2545 C.3       4 UNK        -0.1981 
     24 N          25.8901   -2.4594   -5.6843 N.am      4 UNK        -0.4209 
     25 C          24.6508   -2.0431   -5.9764 C.2       3 UNK         0.4942 
     26 O          24.3751   -1.3423   -6.9501 O.2       3 UNK        -0.5208 
     27 CA         23.5299   -2.4652   -5.0100 C.3       3 UNK         0.0250 
     28 CB         22.9157   -3.8037   -5.4495 C.3       3 UNK        -0.1990 
     29 N          23.9775   -2.5675   -3.6179 N.am      3 UNK        -0.4232 
     30 C          24.3498   -1.5191   -2.8686 C.2       2 UNK         0.4993 
     31 O          24.3426   -0.3548   -3.2695 O.2       2 UNK        -0.5286 
     32 CA         24.8764   -1.8242   -1.4537 C.3       2 UNK         0.0209 
     33 CB         23.7098   -1.9275   -0.4586 C.3       2 UNK        -0.1931 
     34 N          25.7078   -3.0314   -1.3607 N.am      2 UNK        -0.4546 
     35 C          26.7816   -3.2917   -2.1206 C.2       1 UNK         0.5154 
     36 O          27.1747   -2.5538   -3.0227 O.2       1 UNK        -0.5181 
     37 C          27.0351    2.0156   -4.5528 C.2       5 UNK         0.5014 
     38 O          27.5679    3.1118   -4.7263 O.2       5 UNK        -0.5248 
     39 N          25.7492    1.7578   -4.8388 N.am      6 UNK        -0.4434 
     40 CA         24.8263    2.7013   -5.4739 C.3       6 UNK         0.0363 
     41 CB         23.4104    2.1035   -5.4718 C.3       6 UNK        -0.1936 
     42 C          25.2369    3.1056   -6.9032 C.2       6 UNK         0.5081 
     43 O          24.9724    4.2408   -7.3006 O.2       6 UNK        -0.5248 
     44 N          25.8708    2.1877   -7.6470 N.am      7 UNK        -0.4718 
     45 CA         26.4320    2.4524   -8.9741 C.3       7 UNK         0.0273 
     46 CB         26.4664    1.1515   -9.7934 C.3       7 UNK        -0.1935 
     47 C          27.8343    3.0734   -8.8771 C.2       7 UNK         0.5018 
     48 O          28.1387    3.9965   -9.6337 O.2       7 UNK        -0.5186 
     49 N          28.6570    2.5497   -7.9558 N.am      8 UNK        -0.4240 
     50 CA         30.0342    2.9206   -7.6009 C.3       8 UNK         0.0235 
     51 CB         30.1194    4.3749   -7.1004 C.3       8 UNK        -0.2000 
     52 C          31.0754    2.6472   -8.7000 C.2       8 UNK         0.4941 
     53 O          32.1365    2.0987   -8.4001 O.2       8 UNK        -0.5273 
     54 N          30.7670    3.0221   -9.9468 N.am      9 UNK        -0.4262 
     55 CA         31.5781    2.7688  -11.1353 C.3       9 UNK         0.0264 
     56 CB         30.9794    3.5305  -12.3299 C.3       9 UNK        -0.1955 
     57 C          31.6648    1.2606  -11.4193 C.2       9 UNK         0.5031 
     58 O          30.6515    0.6549  -11.7754 O.2       9 UNK        -0.5390 
     59 N          32.8664    0.6956  -11.2335 N.am      10 UNK        -0.4204 
     60 CA         33.2095   -0.7245  -11.3809 C.3       10 UNK         0.0237 
     61 CB         33.1378   -1.1526  -12.8634 C.3       10 UNK        -0.1985 
     62 C          32.3991   -1.6455  -10.4443 C.2       10 UNK         0.4970 
     63 O          31.9304   -2.7009  -10.8765 O.2       10 UNK        -0.4914 
     64 N          32.2476   -1.2283   -9.1791 N.am      11 UNK        -0.4285 
     65 CA         31.6020   -2.0068   -8.1109 C.3       11 UNK         0.1007 
     66 C          32.3099   -3.3607   -7.8033 C.2       11 UNK         0.5703 
     67 N          31.5820   -4.3402   -7.2829 N.am      11 UNK        -0.7361 
     68 O          33.5135   -3.5227   -7.9991 O.2       11 UNK        -0.4986 
     69 C69        31.3904   -1.1504   -6.8317 C.3       12 UNK        -0.0947 
     70 S70        32.9383   -0.5421   -6.0800 S.3       12 UNK        -0.2240 
     71 C71        33.0656   -1.6124   -4.6031 C.3       12 UNK         0.0194 
     72 H72        27.4013   -6.9248   -5.1688 H         1 UNK         0.0906 
     73 H73        25.8681   -7.6914   -4.7496 H         1 UNK         0.0906 
     74 H74        25.8825   -6.2219   -5.7280 H         1 UNK         0.0906 
     75 H75        28.2730   -5.7636   -3.4839 H         1 UNK         0.3140 
     76 H76        27.0573   -5.1382   -1.0413 H         1 UNK         0.1085 
     77 H77        29.5135   -3.8608   -2.3646 H         1 UNK         0.0836 
     78 H78        29.5335   -5.3320   -1.4273 H         1 UNK         0.0836 
     79 H79        31.6336   -3.7547   -0.3351 H         1 UNK         0.0731 
     80 H80        31.3235   -2.4467    0.7745 H         1 UNK         0.0731 
     81 H81        32.3486   -3.1711   -2.5240 H         1 UNK         0.1312 
     82 H82        31.8210    0.8131   -4.0222 H         1 UNK         0.1406 
     83 H83        30.1259   -0.2954   -0.2516 H         1 UNK         0.1631 
     84 H84        30.4500    2.3614   -2.9536 H         1 UNK         0.0717 
     85 H85        30.9712    2.3634   -1.2909 H         1 UNK         0.0717 
     86 H86        28.1270   -0.2806   -2.1678 H         1 UNK         0.0934 
     87 H87        26.6969    0.6972   -2.1914 H         1 UNK         0.0934 
     88 H88        28.9187    1.0438   -4.2760 H         1 UNK         0.0739 
     89 H89        27.2928   -1.1936   -4.0539 H         1 UNK         0.3093 
     90 H90        26.8374   -2.0205   -7.4935 H         1 UNK         0.0818 
     91 H91        28.5536   -3.1926   -5.2362 H         1 UNK         0.0819 
     92 H92        27.7770   -4.1483   -6.4996 H         1 UNK         0.0819 
     93 H93        28.9994   -2.9680   -6.9232 H         1 UNK         0.0819 
     94 H94        26.0391   -2.9644   -4.8201 H         1 UNK         0.3041 
     95 H95        22.7517   -1.7002   -5.0571 H         1 UNK         0.0784 
     96 H96        22.5490   -3.7465   -6.4754 H         1 UNK         0.0793 
     97 H97        23.6424   -4.6160   -5.4075 H         1 UNK         0.0793 
     98 H98        22.0699   -4.0781   -4.8189 H         1 UNK         0.0793 
     99 H99        24.0616   -3.4985   -3.2274 H         1 UNK         0.3024 
    100 H100       25.5007   -0.9825   -1.1512 H         1 UNK         0.1171 
    101 H101       23.0855   -1.0333   -0.4949 H         1 UNK         0.0786 
    102 H102       24.0688   -2.0267    0.5660 H         1 UNK         0.0786 
    103 H103       23.0678   -2.7824   -0.6748 H         1 UNK         0.0786 
    104 H104       25.4349   -3.7103   -0.6645 H         1 UNK         0.2977 
    105 H105       25.3640    0.8564   -4.5734 H         1 UNK         0.3127 
    106 H106       24.8152    3.6094   -4.8674 H         1 UNK         0.0770 
    107 H107       23.3665    1.1703   -6.0350 H         1 UNK         0.0814 
    108 H108       22.6942    2.7919   -5.9225 H         1 UNK         0.0814 
    109 H109       23.0677    1.8981   -4.4575 H         1 UNK         0.0814 
    110 H110       26.0825    1.2884   -7.2346 H         1 UNK         0.2983 
    111 H111       25.7892    3.1620   -9.5003 H         1 UNK         0.0947 
    112 H112       26.8547    1.3347  -10.7963 H         1 UNK         0.0806 
    113 H113       25.4683    0.7273   -9.9041 H         1 UNK         0.0806 
    114 H114       27.1017    0.3937   -9.3344 H         1 UNK         0.0806 
    115 H115       28.3149    1.7238   -7.4637 H         1 UNK         0.3000 
    116 H116       30.2947    2.2733   -6.7615 H         1 UNK         0.0850 
    117 H117       29.4377    4.5450   -6.2669 H         1 UNK         0.0810 
    118 H118       29.8765    5.0931   -7.8839 H         1 UNK         0.0810 
    119 H119       31.1258    4.6059   -6.7491 H         1 UNK         0.0810 
    120 H120       29.8556    3.4518  -10.0868 H         1 UNK         0.3040 
    121 H121       32.5808    3.1606  -10.9515 H         1 UNK         0.0766 
    122 H122       30.9704    4.6057  -12.1504 H         1 UNK         0.0812 
    123 H123       29.9549    3.2176  -12.5366 H         1 UNK         0.0812 
    124 H124       31.5629    3.3570  -13.2350 H         1 UNK         0.0812 
    125 H125       33.6145    1.2886  -10.8996 H         1 UNK         0.3205 
    126 H126       34.2494   -0.8213  -11.0651 H         1 UNK         0.0754 
    127 H127       33.5092   -2.1696  -12.9956 H         1 UNK         0.0769 
    128 H128       33.7455   -0.5034  -13.4938 H         1 UNK         0.0769 
    129 H129       32.1159   -1.1281  -13.2437 H         1 UNK         0.0769 
    130 H130       32.6494   -0.3449   -8.8965 H         1 UNK         0.2981 
    131 H131       30.6118   -2.2569   -8.4954 H         1 UNK         0.0541 
    132 H132       32.0327   -5.2164   -7.0708 H         1 UNK         0.3459 
    133 H133       30.5955   -4.2351   -7.1169 H         1 UNK         0.3459 
    134 H134       30.8205   -1.7026   -6.0834 H         1 UNK         0.0612 
    135 H135       30.7788   -0.2806   -7.0752 H         1 UNK         0.0612 
    136 H136       34.1007   -1.5858   -4.2609 H         1 UNK         0.0624 
    137 H137       32.8681   -2.6439   -4.8981 H         1 UNK         0.0624 
@<TRIPOS>BOND
     1    1    2 1    
     2    1   72 1    
     3    1   73 1    
     4    1   74 1    
     5    2    3 2    
     6    2    4 am   BACKBONE|DICT|INTERRES
     7    4    5 1    
     8    4   75 1    
     9    5    6 1    
    10    5   35 1    
    11    5   76 1    
    12    6    7 1    
    13    6   77 1    
    14    6   78 1    
    15    7    8 1    
    16    8    9 1    
    17    8   79 1    
    18    8   80 1    
    19    9   10 ar   
    20    9   14 ar   
    21   10   11 ar   
    22   10   81 1    
    23   11   12 ar   
    24   11   71 1    
    25   12   13 ar   
    26   12   82 1    
    27   13   14 ar   
    28   13   15 1    
    29   14   83 1    
    30   15   16 1    
    31   15   84 1    
    32   15   85 1    
    33   16   17 1    
    34   17   18 1    
    35   17   86 1    
    36   17   87 1    
    37   18   19 1    
    38   18   37 1    
    39   18   88 1    
    40   19   20 am   BACKBONE|DICT|INTERRES
    41   19   89 1    
    42   20   21 2    
    43   20   22 1    
    44   22   23 1    
    45   22   24 1    
    46   22   90 1    
    47   23   91 1    
    48   23   92 1    
    49   23   93 1    
    50   24   25 am   BACKBONE|DICT|INTERRES
    51   24   94 1    
    52   25   26 2    
    53   25   27 1    
    54   27   28 1    
    55   27   29 1    
    56   27   95 1    
    57   28   96 1    
    58   28   97 1    
    59   28   98 1    
    60   29   30 am   BACKBONE|DICT|INTERRES
    61   29   99 1    
    62   30   31 2    
    63   30   32 1    
    64   32   33 1    
    65   32   34 1    
    66   32  100 1    
    67   33  101 1    
    68   33  102 1    
    69   33  103 1    
    70   34   35 am   BACKBONE|DICT|INTERRES
    71   34  104 1    
    72   35   36 2    
    73   37   38 2    
    74   37   39 am   BACKBONE|DICT|INTERRES
    75   39   40 1    
    76   39  105 1    
    77   40   41 1    
    78   40   42 1    
    79   40  106 1    
    80   41  107 1    
    81   41  108 1    
    82   41  109 1    
    83   42   43 2    
    84   42   44 am   BACKBONE|DICT|INTERRES
    85   44   45 1    
    86   44  110 1    
    87   45   46 1    
    88   45   47 1    
    89   45  111 1    
    90   46  112 1    
    91   46  113 1    
    92   46  114 1    
    93   47   48 2    
    94   47   49 am   BACKBONE|DICT|INTERRES
    95   49   50 1    
    96   49  115 1    
    97   50   51 1    
    98   50   52 1    
    99   50  116 1    
   100   51  117 1    
   101   51  118 1    
   102   51  119 1    
   103   52   53 2    
   104   52   54 am   BACKBONE|DICT|INTERRES
   105   54   55 1    
   106   54  120 1    
   107   55   56 1    
   108   55   57 1    
   109   55  121 1    
   110   56  122 1    
   111   56  123 1    
   112   56  124 1    
   113   57   58 2    
   114   57   59 am   BACKBONE|DICT|INTERRES
   115   59   60 1    
   116   59  125 1    
   117   60   61 1    
   118   60   62 1    
   119   60  126 1    
   120   61  127 1    
   121   61  128 1    
   122   61  129 1    
   123   62   63 2    
   124   62   64 am   BACKBONE|DICT|INTERRES
   125   64   65 1    
   126   64  130 1    
   127   65   66 1    
   128   65   69 1    
   129   65  131 1    
   130   66   67 am   BACKBONE|DICT|INTERRES
   131   66   68 2    
   132   67  132 1    
   133   67  133 1    
   134   69   70 1    
   135   69  134 1    
   136   69  135 1    
   137   70   71 1    
   138   71  136 1    
   139   71  137 1    
@<TRIPOS>SUBSTRUCTURE
     1 UNK         1 GROUP             0       ****    0 ROOT    
