@<TRIPOS>MOLECULE
3R137
137   139    1
SMALL
USER_CHARGES


@<TRIPOS>ATOM
      1 CA         27.3107   -8.2583    0.9692 C.3       0 UNK        -0.2020 
      2 C          26.8134   -6.8270    0.8354 C.2       0 UNK         0.4855 
      3 O          25.7949   -6.4738    1.4300 O.2       0 UNK        -0.5197 
      4 N          27.5223   -5.9994    0.0568 N.am      1 UNK        -0.4892 
      5 CA         27.1850   -4.5932   -0.2062 C.3       1 UNK         0.0835 
      6 C6         28.4263   -3.7836   -0.6539 C.3       12 UNK        -0.0855 
      7 S7         29.2723   -4.4683   -2.1235 S.3       12 UNK        -0.2931 
      8 C8         29.0707   -3.1172   -3.3251 C.3       12 UNK         0.0378 
      9 C9         29.9238   -1.9078   -2.9709 C.ar      12 UNK        -0.0802 
     10 C10        31.3064   -1.9465   -3.1696 C.ar      12 UNK        -0.0944 
     11 C11        32.1015   -0.8410   -2.8538 C.ar      12 UNK        -0.0787 
     12 C12        31.5018    0.3159   -2.3491 C.ar      12 UNK        -0.0862 
     13 C13        30.1204    0.3678   -2.1408 C.ar      12 UNK        -0.0733 
     14 C14        29.3369   -0.7513   -2.4480 C.ar      12 UNK        -0.0832 
     15 C15        29.4910    1.6248   -1.5516 C.3       12 UNK         0.0240 
     16 S16        28.0683    2.2321   -2.5120 S.3       12 UNK        -0.2522 
     17 C17        28.8308    2.6763   -4.1128 C.3       12 UNK        -0.0967 
     18 CA         28.7133    1.5515   -5.1867 C.3       5 UNK         0.0660 
     19 N          27.3505    1.0170   -5.2766 N.am      5 UNK        -0.4015 
     20 C          26.2879    1.5940   -5.8476 C.2       4 UNK         0.4946 
     21 O          26.3596    2.5863   -6.5745 O.2       4 UNK        -0.5353 
     22 CA         24.9135    0.9584   -5.5477 C.3       4 UNK         0.0277 
     23 CB         23.7731    1.6234   -6.3437 C.3       4 UNK        -0.1981 
     24 N          24.8750   -0.4930   -5.7660 N.am      4 UNK        -0.4209 
     25 C          25.4125   -1.4172   -4.9603 C.2       3 UNK         0.4942 
     26 O          26.0520   -1.1492   -3.9405 O.2       3 UNK        -0.5208 
     27 CA         25.2500   -2.8778   -5.3854 C.3       3 UNK         0.0250 
     28 CB         26.4408   -3.3350   -6.2491 C.3       3 UNK        -0.1990 
     29 N          25.1317   -3.7006   -4.1838 N.am      3 UNK        -0.4232 
     30 C          24.5959   -4.9248   -4.1365 C.2       2 UNK         0.4993 
     31 O          24.2228   -5.5354   -5.1405 O.2       2 UNK        -0.5286 
     32 CA         24.4290   -5.5708   -2.7454 C.3       2 UNK         0.0209 
     33 CB         24.0043   -7.0502   -2.8259 C.3       2 UNK        -0.1931 
     34 N          25.6266   -5.4788   -1.9059 N.am      2 UNK        -0.4546 
     35 C          25.9896   -4.4185   -1.1714 C.2       1 UNK         0.5154 
     36 O          25.4062   -3.3350   -1.2241 O.2       1 UNK        -0.5181 
     37 C          29.2783    1.9439   -6.5728 C.2       5 UNK         0.5014 
     38 O          29.3326    1.0971   -7.4689 O.2       5 UNK        -0.5248 
     39 N          29.6852    3.2096   -6.7384 N.am      6 UNK        -0.4434 
     40 CA         30.1992    3.7637   -7.9903 C.3       6 UNK         0.0363 
     41 CB         30.9974    5.0415   -7.6887 C.3       6 UNK        -0.1936 
     42 C          29.1113    4.0396   -9.0432 C.2       6 UNK         0.5081 
     43 O          29.4433    4.0882  -10.2266 O.2       6 UNK        -0.5248 
     44 N          27.8423    4.1889   -8.6312 N.am      7 UNK        -0.4718 
     45 CA         26.7089    4.3774   -9.5469 C.3       7 UNK         0.0273 
     46 CB         25.5069    4.9721   -8.7950 C.3       7 UNK        -0.1935 
     47 C          26.3272    3.0687  -10.2575 C.2       7 UNK         0.5018 
     48 O          25.9868    3.0970  -11.4403 O.2       7 UNK        -0.5186 
     49 N          26.4484    1.9428   -9.5398 N.am      8 UNK        -0.4240 
     50 CA         26.3618    0.5876  -10.0966 C.3       8 UNK         0.0235 
     51 CB         26.0086   -0.3991   -8.9738 C.3       8 UNK        -0.2000 
     52 C          27.6552    0.1385  -10.8032 C.2       8 UNK         0.4941 
     53 O          27.6472   -0.9097  -11.4491 O.2       8 UNK        -0.5273 
     54 N          28.7372    0.9158  -10.6462 N.am      9 UNK        -0.4262 
     55 CA         30.1010    0.6680  -11.1229 C.3       9 UNK         0.0264 
     56 CB         30.1607    0.6506  -12.6653 C.3       9 UNK        -0.1955 
     57 C          30.7525   -0.5703  -10.4759 C.2       9 UNK         0.5031 
     58 O          31.5870   -1.2210  -11.1076 O.2       9 UNK        -0.5390 
     59 N          30.3898   -0.8579   -9.2169 N.am      10 UNK        -0.4204 
     60 CA         31.0097   -1.9011   -8.3972 C.3       10 UNK         0.0237 
     61 CB         30.0790   -2.2667   -7.2275 C.3       10 UNK        -0.1985 
     62 C          32.3866   -1.4529   -7.8838 C.2       10 UNK         0.4970 
     63 O          33.3306   -2.2427   -7.9131 O.2       10 UNK        -0.4914 
     64 N          32.4666   -0.1850   -7.4625 N.am      11 UNK        -0.4285 
     65 CA         33.6780    0.5039   -6.9928 C.3       11 UNK         0.1007 
     66 C          33.8104    1.9070   -7.6515 C.2       11 UNK         0.5703 
     67 N          33.4038    2.0682   -8.9057 N.am      11 UNK        -0.7361 
     68 O          34.2854    2.8594   -7.0381 O.2       11 UNK        -0.4986 
     69 C69        33.7706    0.5294   -5.4404 C.3       12 UNK        -0.0947 
     70 S70        34.1155   -1.1217   -4.7500 S.3       12 UNK        -0.2240 
     71 C71        33.6129   -0.9127   -3.0167 C.3       12 UNK         0.0194 
     72 H72        28.2205   -8.4300    0.3942 H         1 UNK         0.0906 
     73 H73        27.5224   -8.4856    2.0137 H         1 UNK         0.0906 
     74 H74        26.5501   -8.9543    0.6165 H         1 UNK         0.0906 
     75 H75        28.3548   -6.3335   -0.4107 H         1 UNK         0.3140 
     76 H76        26.8534   -4.1594    0.7404 H         1 UNK         0.1085 
     77 H77        29.1535   -3.7614    0.1592 H         1 UNK         0.0836 
     78 H78        28.1549   -2.7403   -0.8203 H         1 UNK         0.0836 
     79 H79        29.3572   -3.4806   -4.3127 H         1 UNK         0.0731 
     80 H80        28.0163   -2.8477   -3.3884 H         1 UNK         0.0731 
     81 H81        31.7670   -2.8436   -3.5605 H         1 UNK         0.1312 
     82 H82        32.1154    1.1708   -2.0994 H         1 UNK         0.1406 
     83 H83        28.2673   -0.7165   -2.2868 H         1 UNK         0.1631 
     84 H84        30.2242    2.4283   -1.4651 H         1 UNK         0.0717 
     85 H85        29.1575    1.4034   -0.5370 H         1 UNK         0.0717 
     86 H86        28.3241    3.5830   -4.4489 H         1 UNK         0.0934 
     87 H87        29.8758    2.9442   -3.9436 H         1 UNK         0.0934 
     88 H88        29.3340    0.7171   -4.8606 H         1 UNK         0.0739 
     89 H89        27.1622    0.1970   -4.7069 H         1 UNK         0.3093 
     90 H90        24.7183    1.1425   -4.4888 H         1 UNK         0.0818 
     91 H91        22.8051    1.1898   -6.0925 H         1 UNK         0.0819 
     92 H92        23.7135    2.6892   -6.1187 H         1 UNK         0.0819 
     93 H93        23.9159    1.5314   -7.4203 H         1 UNK         0.0819 
     94 H94        24.3843   -0.8042   -6.5914 H         1 UNK         0.3041 
     95 H95        24.3280   -2.9707   -5.9637 H         1 UNK         0.0784 
     96 H96        26.5260   -2.7294   -7.1513 H         1 UNK         0.0793 
     97 H97        27.3847   -3.2526   -5.7126 H         1 UNK         0.0793 
     98 H98        26.3293   -4.3709   -6.5691 H         1 UNK         0.0793 
     99 H99        25.3845   -3.2373   -3.3144 H         1 UNK         0.3024 
    100 H100       23.6203   -5.0263   -2.2518 H         1 UNK         0.1171 
    101 H101       23.0688   -7.1620   -3.3760 H         1 UNK         0.0786 
    102 H102       23.8428   -7.4716   -1.8334 H         1 UNK         0.0786 
    103 H103       24.7557   -7.6583   -3.3313 H         1 UNK         0.0786 
    104 H104       26.1905   -6.3127   -1.8290 H         1 UNK         0.2977 
    105 H105       29.5994    3.8536   -5.9659 H         1 UNK         0.3127 
    106 H106       30.8834    3.0352   -8.4275 H         1 UNK         0.0770 
    107 H107       30.3745    5.8103   -7.2298 H         1 UNK         0.0814 
    108 H108       31.4164    5.4643   -8.6030 H         1 UNK         0.0814 
    109 H109       31.8330    4.8373   -7.0185 H         1 UNK         0.0814 
    110 H110       27.6162    4.0544   -7.6525 H         1 UNK         0.2983 
    111 H111       27.0063    5.0941  -10.3162 H         1 UNK         0.0947 
    112 H112       24.6898    5.1891   -9.4842 H         1 UNK         0.0806 
    113 H113       25.7705    5.9075   -8.3015 H         1 UNK         0.0806 
    114 H114       25.1162    4.2920   -8.0385 H         1 UNK         0.0806 
    115 H115       26.6813    2.0325   -8.5559 H         1 UNK         0.3000 
    116 H116       25.5621    0.5604  -10.8399 H         1 UNK         0.0850 
    117 H117       25.9732   -1.4238   -9.3466 H         1 UNK         0.0810 
    118 H118       26.7419   -0.3706   -8.1667 H         1 UNK         0.0810 
    119 H119       25.0263   -0.1798   -8.5614 H         1 UNK         0.0810 
    120 H120       28.6201    1.7568  -10.0990 H         1 UNK         0.3040 
    121 H121       30.6911    1.5219  -10.7869 H         1 UNK         0.0766 
    122 H122       29.6994    1.5425  -13.0893 H         1 UNK         0.0812 
    123 H123       29.6546   -0.2207  -13.0819 H         1 UNK         0.0812 
    124 H124       31.1929    0.6235  -13.0164 H         1 UNK         0.0812 
    125 H125       29.7468   -0.2292   -8.7397 H         1 UNK         0.3205 
    126 H126       31.1496   -2.7926   -9.0125 H         1 UNK         0.0754 
    127 H127       30.5097   -3.0678   -6.6255 H         1 UNK         0.0769 
    128 H128       29.1122   -2.6160   -7.5894 H         1 UNK         0.0769 
    129 H129       29.9022   -1.4209   -6.5619 H         1 UNK         0.0769 
    130 H130       31.6329    0.3846   -7.5010 H         1 UNK         0.2981 
    131 H131       34.5536   -0.0334   -7.3613 H         1 UNK         0.0541 
    132 H132       33.5065    2.9718   -9.3395 H         1 UNK         0.3459 
    133 H133       33.0826    1.2811   -9.4446 H         1 UNK         0.3459 
    134 H134       32.8493    0.9271   -5.0121 H         1 UNK         0.0612 
    135 H135       34.5771    1.1825   -5.1032 H         1 UNK         0.0612 
    136 H136       34.0980   -0.0249   -2.6082 H         1 UNK         0.0624 
    137 H137       33.9881   -1.7598   -2.4409 H         1 UNK         0.0624 
@<TRIPOS>BOND
     1    1    2 1    
     2    1   72 1    
     3    1   73 1    
     4    1   74 1    
     5    2    3 2    
     6    2    4 am   BACKBONE|DICT|INTERRES
     7    4    5 1    
     8    4   75 1    
     9    5    6 1    
    10    5   35 1    
    11    5   76 1    
    12    6    7 1    
    13    6   77 1    
    14    6   78 1    
    15    7    8 1    
    16    8    9 1    
    17    8   79 1    
    18    8   80 1    
    19    9   10 ar   
    20    9   14 ar   
    21   10   11 ar   
    22   10   81 1    
    23   11   12 ar   
    24   11   71 1    
    25   12   13 ar   
    26   12   82 1    
    27   13   14 ar   
    28   13   15 1    
    29   14   83 1    
    30   15   16 1    
    31   15   84 1    
    32   15   85 1    
    33   16   17 1    
    34   17   18 1    
    35   17   86 1    
    36   17   87 1    
    37   18   19 1    
    38   18   37 1    
    39   18   88 1    
    40   19   20 am   BACKBONE|DICT|INTERRES
    41   19   89 1    
    42   20   21 2    
    43   20   22 1    
    44   22   23 1    
    45   22   24 1    
    46   22   90 1    
    47   23   91 1    
    48   23   92 1    
    49   23   93 1    
    50   24   25 am   BACKBONE|DICT|INTERRES
    51   24   94 1    
    52   25   26 2    
    53   25   27 1    
    54   27   28 1    
    55   27   29 1    
    56   27   95 1    
    57   28   96 1    
    58   28   97 1    
    59   28   98 1    
    60   29   30 am   BACKBONE|DICT|INTERRES
    61   29   99 1    
    62   30   31 2    
    63   30   32 1    
    64   32   33 1    
    65   32   34 1    
    66   32  100 1    
    67   33  101 1    
    68   33  102 1    
    69   33  103 1    
    70   34   35 am   BACKBONE|DICT|INTERRES
    71   34  104 1    
    72   35   36 2    
    73   37   38 2    
    74   37   39 am   BACKBONE|DICT|INTERRES
    75   39   40 1    
    76   39  105 1    
    77   40   41 1    
    78   40   42 1    
    79   40  106 1    
    80   41  107 1    
    81   41  108 1    
    82   41  109 1    
    83   42   43 2    
    84   42   44 am   BACKBONE|DICT|INTERRES
    85   44   45 1    
    86   44  110 1    
    87   45   46 1    
    88   45   47 1    
    89   45  111 1    
    90   46  112 1    
    91   46  113 1    
    92   46  114 1    
    93   47   48 2    
    94   47   49 am   BACKBONE|DICT|INTERRES
    95   49   50 1    
    96   49  115 1    
    97   50   51 1    
    98   50   52 1    
    99   50  116 1    
   100   51  117 1    
   101   51  118 1    
   102   51  119 1    
   103   52   53 2    
   104   52   54 am   BACKBONE|DICT|INTERRES
   105   54   55 1    
   106   54  120 1    
   107   55   56 1    
   108   55   57 1    
   109   55  121 1    
   110   56  122 1    
   111   56  123 1    
   112   56  124 1    
   113   57   58 2    
   114   57   59 am   BACKBONE|DICT|INTERRES
   115   59   60 1    
   116   59  125 1    
   117   60   61 1    
   118   60   62 1    
   119   60  126 1    
   120   61  127 1    
   121   61  128 1    
   122   61  129 1    
   123   62   63 2    
   124   62   64 am   BACKBONE|DICT|INTERRES
   125   64   65 1    
   126   64  130 1    
   127   65   66 1    
   128   65   69 1    
   129   65  131 1    
   130   66   67 am   BACKBONE|DICT|INTERRES
   131   66   68 2    
   132   67  132 1    
   133   67  133 1    
   134   69   70 1    
   135   69  134 1    
   136   69  135 1    
   137   70   71 1    
   138   71  136 1    
   139   71  137 1    
@<TRIPOS>SUBSTRUCTURE
     1 UNK         1 GROUP             0       ****    0 ROOT    
