@<TRIPOS>MOLECULE
3R137
137   139    1
SMALL
USER_CHARGES


@<TRIPOS>ATOM
      1 CA         29.9992    0.1030   -0.4373 C.3       0 UNK        -0.2020 
      2 C          29.2855   -1.0653   -1.0991 C.2       0 UNK         0.4855 
      3 O          28.9226   -0.9734   -2.2701 O.2       0 UNK        -0.5197 
      4 N          29.0759   -2.1622   -0.3603 N.am      1 UNK        -0.4892 
      5 CA         28.4569   -3.4022   -0.8430 C.3       1 UNK         0.0835 
      6 C6         28.8929   -4.6383   -0.0073 C.3       12 UNK        -0.0855 
      7 S7         30.7001   -4.8426    0.1496 S.3       12 UNK        -0.2931 
      8 C8         31.0820   -5.9614   -1.2368 C.3       12 UNK         0.0378 
      9 C9         31.1037   -5.2185   -2.5641 C.ar      12 UNK        -0.0802 
     10 C10        32.1162   -4.2886   -2.8195 C.ar      12 UNK        -0.0944 
     11 C11        32.1439   -3.5829   -4.0241 C.ar      12 UNK        -0.0787 
     12 C12        31.1634   -3.8284   -4.9874 C.ar      12 UNK        -0.0862 
     13 C13        30.1351   -4.7425   -4.7385 C.ar      12 UNK        -0.0733 
     14 C14        30.1159   -5.4453   -3.5290 C.ar      12 UNK        -0.0832 
     15 C15        29.0331   -4.9469   -5.7697 C.3       12 UNK         0.0240 
     16 S16        27.4811   -4.1204   -5.2865 S.3       12 UNK        -0.2522 
     17 C17        27.9697   -2.3622   -5.2460 C.3       12 UNK        -0.0967 
     18 CA         27.3599   -1.5237   -6.3910 C.3       5 UNK         0.0660 
     19 N          25.8941   -1.5167   -6.3553 N.am      5 UNK        -0.4015 
     20 C          25.1029   -1.0383   -7.3252 C.2       4 UNK         0.4946 
     21 O          25.5209   -0.5718   -8.3829 O.2       4 UNK        -0.5353 
     22 CA         23.5894   -1.0431   -7.0530 C.3       4 UNK         0.0277 
     23 CB         22.9936   -2.4345   -7.3208 C.3       4 UNK        -0.1981 
     24 N          23.2626   -0.6191   -5.6897 N.am      4 UNK        -0.4209 
     25 C          23.4844    0.6119   -5.2044 C.2       3 UNK         0.4942 
     26 O          23.9207    1.5443   -5.8774 O.2       3 UNK        -0.5208 
     27 CA         23.2312    0.8208   -3.7000 C.3       3 UNK         0.0250 
     28 CB         21.7623    1.1937   -3.4446 C.3       3 UNK        -0.1990 
     29 N          23.5963   -0.3443   -2.8841 N.am      3 UNK        -0.4232 
     30 C          24.8302   -0.8636   -2.8202 C.2       2 UNK         0.4993 
     31 O          25.7986   -0.3946   -3.4222 O.2       2 UNK        -0.5286 
     32 CA         24.9902   -2.1575   -2.0170 C.3       2 UNK         0.0209 
     33 CB         24.3608   -3.3432   -2.7787 C.3       2 UNK        -0.1931 
     34 N          26.4122   -2.4072   -1.7851 N.am      2 UNK        -0.4546 
     35 C          26.9173   -3.2708   -0.8993 C.2       1 UNK         0.5154 
     36 O          26.2133   -3.9331   -0.1332 O.2       1 UNK        -0.5181 
     37 C          27.9385   -0.0948   -6.3623 C.2       5 UNK         0.5014 
     38 O          28.9156    0.1738   -7.0611 O.2       5 UNK        -0.5248 
     39 N          27.3215    0.7906   -5.5664 N.am      6 UNK        -0.4434 
     40 CA         27.6586    2.2113   -5.4854 C.3       6 UNK         0.0363 
     41 CB         26.9464    2.8384   -4.2766 C.3       6 UNK        -0.1936 
     42 C          27.3297    2.9814   -6.7776 C.2       6 UNK         0.5081 
     43 O          28.0885    3.8756   -7.1521 O.2       6 UNK        -0.5248 
     44 N          26.2090    2.6342   -7.4270 N.am      7 UNK        -0.4718 
     45 CA         25.7732    3.2140   -8.7002 C.3       7 UNK         0.0273 
     46 CB         24.2814    2.9116   -8.9142 C.3       7 UNK        -0.1935 
     47 C          26.5999    2.7240   -9.9021 C.2       7 UNK         0.5018 
     48 O          26.8389    3.5052  -10.8248 O.2       7 UNK        -0.5186 
     49 N          27.0004    1.4456   -9.8836 N.am      8 UNK        -0.4240 
     50 CA         27.8317    0.8037  -10.9044 C.3       8 UNK         0.0235 
     51 CB         27.8296   -0.7157  -10.6595 C.3       8 UNK        -0.2000 
     52 C          29.2763    1.3325  -10.9224 C.2       8 UNK         0.4941 
     53 O          29.7414    1.9358   -9.9517 O.2       8 UNK        -0.5273 
     54 N          29.9943    1.0341  -12.0135 N.am      9 UNK        -0.4262 
     55 CA         31.4193    1.3281  -12.2025 C.3       9 UNK         0.0264 
     56 CB         31.7395    1.2961  -13.7092 C.3       9 UNK        -0.1955 
     57 C          32.3232    0.3823  -11.3811 C.2       9 UNK         0.5031 
     58 O          33.1665   -0.3176  -11.9464 O.2       9 UNK        -0.5390 
     59 N          32.1115    0.3722  -10.0626 N.am      10 UNK        -0.4204 
     60 CA         32.8606   -0.3831   -9.0637 C.3       10 UNK         0.0237 
     61 CB         31.9733   -1.5229   -8.5174 C.3       10 UNK        -0.1985 
     62 C          33.3588    0.6023   -7.9931 C.2       10 UNK         0.4970 
     63 O          33.8234    1.6887   -8.3458 O.2       10 UNK        -0.4914 
     64 N          33.2697    0.2184   -6.7147 N.am      11 UNK        -0.4285 
     65 CA         33.6479    1.0483   -5.5600 C.3       11 UNK         0.1007 
     66 C          32.6703    2.2181   -5.2363 C.2       11 UNK         0.5703 
     67 N          31.4909    2.2940   -5.8417 N.am      11 UNK        -0.7361 
     68 O          33.0026    3.0890   -4.4355 O.2       11 UNK        -0.4986 
     69 C69        33.9752    0.1808   -4.3150 C.3       12 UNK        -0.0947 
     70 S70        32.5958   -0.8875   -3.7791 S.3       12 UNK        -0.2240 
     71 C71        33.2075   -2.5278   -4.2716 C.3       12 UNK         0.0194 
     72 H72        29.3600    0.9854   -0.4451 H         1 UNK         0.0906 
     73 H73        30.2691   -0.1145    0.5958 H         1 UNK         0.0906 
     74 H74        30.9118    0.3384   -0.9849 H         1 UNK         0.0906 
     75 H75        29.3879   -2.1830    0.6002 H         1 UNK         0.3140 
     76 H76        28.7910   -3.5680   -1.8695 H         1 UNK         0.1085 
     77 H77        28.4681   -5.5508   -0.4299 H         1 UNK         0.0836 
     78 H78        28.4948   -4.5679    1.0070 H         1 UNK         0.0836 
     79 H79        32.0629   -6.4075   -1.0662 H         1 UNK         0.0731 
     80 H80        30.3713   -6.7892   -1.2556 H         1 UNK         0.0731 
     81 H81        32.8687   -4.0967   -2.0667 H         1 UNK         0.1312 
     82 H82        31.1792   -3.2766   -5.9170 H         1 UNK         0.1406 
     83 H83        29.3199   -6.1515   -3.3344 H         1 UNK         0.1631 
     84 H84        28.8424   -6.0142   -5.8903 H         1 UNK         0.0717 
     85 H85        29.3438   -4.5795   -6.7492 H         1 UNK         0.0717 
     86 H86        27.6647   -1.9617   -4.2816 H         1 UNK         0.0934 
     87 H87        29.0546   -2.2740   -5.2585 H         1 UNK         0.0934 
     88 H88        27.6624   -1.9737   -7.3391 H         1 UNK         0.0739 
     89 H89        25.4728   -1.8524   -5.5032 H         1 UNK         0.3093 
     90 H90        23.1271   -0.3347   -7.7441 H         1 UNK         0.0818 
     91 H91        21.9089   -2.4291   -7.2125 H         1 UNK         0.0819 
     92 H92        23.2135   -2.7617   -8.3382 H         1 UNK         0.0819 
     93 H93        23.3958   -3.1883   -6.6426 H         1 UNK         0.0819 
     94 H94        22.8837   -1.3183   -5.0684 H         1 UNK         0.3041 
     95 H95        23.8558    1.6563   -3.3773 H         1 UNK         0.0784 
     96 H96        21.4763    2.0700   -4.0284 H         1 UNK         0.0793 
     97 H97        21.0840    0.3845   -3.7181 H         1 UNK         0.0793 
     98 H98        21.5910    1.4366   -2.3957 H         1 UNK         0.0793 
     99 H99        22.8505   -0.7852   -2.3642 H         1 UNK         0.3024 
    100 H100       24.4931   -2.0273   -1.0530 H         1 UNK         0.1171 
    101 H101       23.3008   -3.1762   -2.9732 H         1 UNK         0.0786 
    102 H102       24.4329   -4.2695   -2.2088 H         1 UNK         0.0786 
    103 H103       24.8486   -3.5088   -3.7397 H         1 UNK         0.0786 
    104 H104       27.0489   -1.8087   -2.3082 H         1 UNK         0.2977 
    105 H105       26.5919    0.4543   -4.9421 H         1 UNK         0.3127 
    106 H106       28.7339    2.2851   -5.3175 H         1 UNK         0.0770 
    107 H107       25.8623    2.8051   -4.3855 H         1 UNK         0.0814 
    108 H108       27.2305    3.8846   -4.1575 H         1 UNK         0.0814 
    109 H109       27.2063    2.3220   -3.3521 H         1 UNK         0.0814 
    110 H110       25.5946    1.9462   -7.0036 H         1 UNK         0.2983 
    111 H111       25.8938    4.2979   -8.6394 H         1 UNK         0.0947 
    112 H112       23.9236    3.3472   -9.8481 H         1 UNK         0.0806 
    113 H113       23.6740    3.3257   -8.1091 H         1 UNK         0.0806 
    114 H114       24.0901    1.8388   -8.9583 H         1 UNK         0.0806 
    115 H115       26.7061    0.8597   -9.1084 H         1 UNK         0.3000 
    116 H116       27.3826    1.0057  -11.8791 H         1 UNK         0.0850 
    117 H117       28.4204   -1.2447  -11.4081 H         1 UNK         0.0810 
    118 H118       26.8192   -1.1225  -10.7049 H         1 UNK         0.0810 
    119 H119       28.2457   -0.9624   -9.6816 H         1 UNK         0.0810 
    120 H120       29.5515    0.5019  -12.7492 H         1 UNK         0.3040 
    121 H121       31.6132    2.3424  -11.8464 H         1 UNK         0.0766 
    122 H122       32.7837    1.5534  -13.8922 H         1 UNK         0.0812 
    123 H123       31.1311    2.0138  -14.2601 H         1 UNK         0.0812 
    124 H124       31.5668    0.3085  -14.1388 H         1 UNK         0.0812 
    125 H125       31.3913    0.9999   -9.7087 H         1 UNK         0.3205 
    126 H126       33.7503   -0.8250   -9.5165 H         1 UNK         0.0754 
    127 H127       32.5298   -2.1752   -7.8436 H         1 UNK         0.0769 
    128 H128       31.6053   -2.1515   -9.3287 H         1 UNK         0.0769 
    129 H129       31.1034   -1.1418   -7.9808 H         1 UNK         0.0769 
    130 H130       32.8444   -0.6690   -6.4961 H         1 UNK         0.2981 
    131 H131       34.5825    1.5436   -5.8306 H         1 UNK         0.0541 
    132 H132       31.1898    1.5798   -6.4863 H         1 UNK         0.3459 
    133 H133       30.8890    3.0752   -5.6399 H         1 UNK         0.3459 
    134 H134       34.2661    0.8111   -3.4728 H         1 UNK         0.0612 
    135 H135       34.8480   -0.4395   -4.5242 H         1 UNK         0.0612 
    136 H136       33.4873   -2.5186   -5.3259 H         1 UNK         0.0624 
    137 H137       34.1135   -2.7608   -3.7098 H         1 UNK         0.0624 
@<TRIPOS>BOND
     1    1    2 1    
     2    1   72 1    
     3    1   73 1    
     4    1   74 1    
     5    2    3 2    
     6    2    4 am   BACKBONE|DICT|INTERRES
     7    4    5 1    
     8    4   75 1    
     9    5    6 1    
    10    5   35 1    
    11    5   76 1    
    12    6    7 1    
    13    6   77 1    
    14    6   78 1    
    15    7    8 1    
    16    8    9 1    
    17    8   79 1    
    18    8   80 1    
    19    9   10 ar   
    20    9   14 ar   
    21   10   11 ar   
    22   10   81 1    
    23   11   12 ar   
    24   11   71 1    
    25   12   13 ar   
    26   12   82 1    
    27   13   14 ar   
    28   13   15 1    
    29   14   83 1    
    30   15   16 1    
    31   15   84 1    
    32   15   85 1    
    33   16   17 1    
    34   17   18 1    
    35   17   86 1    
    36   17   87 1    
    37   18   19 1    
    38   18   37 1    
    39   18   88 1    
    40   19   20 am   BACKBONE|DICT|INTERRES
    41   19   89 1    
    42   20   21 2    
    43   20   22 1    
    44   22   23 1    
    45   22   24 1    
    46   22   90 1    
    47   23   91 1    
    48   23   92 1    
    49   23   93 1    
    50   24   25 am   BACKBONE|DICT|INTERRES
    51   24   94 1    
    52   25   26 2    
    53   25   27 1    
    54   27   28 1    
    55   27   29 1    
    56   27   95 1    
    57   28   96 1    
    58   28   97 1    
    59   28   98 1    
    60   29   30 am   BACKBONE|DICT|INTERRES
    61   29   99 1    
    62   30   31 2    
    63   30   32 1    
    64   32   33 1    
    65   32   34 1    
    66   32  100 1    
    67   33  101 1    
    68   33  102 1    
    69   33  103 1    
    70   34   35 am   BACKBONE|DICT|INTERRES
    71   34  104 1    
    72   35   36 2    
    73   37   38 2    
    74   37   39 am   BACKBONE|DICT|INTERRES
    75   39   40 1    
    76   39  105 1    
    77   40   41 1    
    78   40   42 1    
    79   40  106 1    
    80   41  107 1    
    81   41  108 1    
    82   41  109 1    
    83   42   43 2    
    84   42   44 am   BACKBONE|DICT|INTERRES
    85   44   45 1    
    86   44  110 1    
    87   45   46 1    
    88   45   47 1    
    89   45  111 1    
    90   46  112 1    
    91   46  113 1    
    92   46  114 1    
    93   47   48 2    
    94   47   49 am   BACKBONE|DICT|INTERRES
    95   49   50 1    
    96   49  115 1    
    97   50   51 1    
    98   50   52 1    
    99   50  116 1    
   100   51  117 1    
   101   51  118 1    
   102   51  119 1    
   103   52   53 2    
   104   52   54 am   BACKBONE|DICT|INTERRES
   105   54   55 1    
   106   54  120 1    
   107   55   56 1    
   108   55   57 1    
   109   55  121 1    
   110   56  122 1    
   111   56  123 1    
   112   56  124 1    
   113   57   58 2    
   114   57   59 am   BACKBONE|DICT|INTERRES
   115   59   60 1    
   116   59  125 1    
   117   60   61 1    
   118   60   62 1    
   119   60  126 1    
   120   61  127 1    
   121   61  128 1    
   122   61  129 1    
   123   62   63 2    
   124   62   64 am   BACKBONE|DICT|INTERRES
   125   64   65 1    
   126   64  130 1    
   127   65   66 1    
   128   65   69 1    
   129   65  131 1    
   130   66   67 am   BACKBONE|DICT|INTERRES
   131   66   68 2    
   132   67  132 1    
   133   67  133 1    
   134   69   70 1    
   135   69  134 1    
   136   69  135 1    
   137   70   71 1    
   138   71  136 1    
   139   71  137 1    
@<TRIPOS>SUBSTRUCTURE
     1 UNK         1 GROUP             0       ****    0 ROOT    
