@<TRIPOS>MOLECULE
3R137
137   139    1
SMALL
USER_CHARGES


@<TRIPOS>ATOM
      1 CA         22.8090   -4.3436   -4.6743 C.3       0 UNK        -0.2020 
      2 C          23.4629   -4.1494   -3.3152 C.2       0 UNK         0.4855 
      3 O          22.9798   -3.3506   -2.5122 O.2       0 UNK        -0.5197 
      4 N          24.5674   -4.8625   -3.0600 N.am      1 UNK        -0.4892 
      5 CA         25.3948   -4.7975   -1.8489 C.3       1 UNK         0.0835 
      6 C6         26.5497   -5.8439   -1.8570 C.3       12 UNK        -0.0855 
      7 S7         27.2760   -6.2105   -3.5008 S.3       12 UNK        -0.2931 
      8 C8         29.0613   -6.2974   -3.1528 C.3       12 UNK         0.0378 
      9 C9         29.7591   -4.9721   -3.4202 C.ar      12 UNK        -0.0802 
     10 C10        30.1881   -4.6548   -4.7143 C.ar      12 UNK        -0.0944 
     11 C11        30.8457   -3.4468   -4.9652 C.ar      12 UNK        -0.0787 
     12 C12        31.0982   -2.5702   -3.9095 C.ar      12 UNK        -0.0862 
     13 C13        30.6356   -2.8524   -2.6243 C.ar      12 UNK        -0.0733 
     14 C14        29.9764   -4.0620   -2.3808 C.ar      12 UNK        -0.0832 
     15 C15        30.8089   -1.8341   -1.5095 C.3       12 UNK         0.0240 
     16 S16        29.2512   -0.9411   -1.2135 S.3       12 UNK        -0.2522 
     17 C17        29.3930    0.5564   -2.2489 C.3       12 UNK        -0.0967 
     18 CA         29.2243    0.3651   -3.7814 C.3       5 UNK         0.0660 
     19 N          28.0944   -0.4961   -4.1517 N.am      5 UNK        -0.4015 
     20 C          27.7739   -0.8622   -5.4045 C.2       4 UNK         0.4946 
     21 O          28.4181   -0.5517   -6.4039 O.2       4 UNK        -0.5353 
     22 CA         26.4547   -1.6207   -5.6026 C.3       4 UNK         0.0277 
     23 CB         26.6941   -3.1376   -5.6338 C.3       4 UNK        -0.1981 
     24 N          25.4427   -1.2693   -4.6018 N.am      4 UNK        -0.4209 
     25 C          24.9059   -0.0454   -4.4654 C.2       3 UNK         0.4942 
     26 O          25.2193    0.9163   -5.1692 O.2       3 UNK        -0.5208 
     27 CA         23.8890    0.1545   -3.3311 C.3       3 UNK         0.0250 
     28 CB         22.4694   -0.1899   -3.8072 C.3       3 UNK        -0.1990 
     29 N          24.2279   -0.6362   -2.1453 N.am      3 UNK        -0.4232 
     30 C          25.2173   -0.3105   -1.2984 C.2       2 UNK         0.4993 
     31 O          25.8673    0.7316   -1.3820 O.2       2 UNK        -0.5286 
     32 CA         25.5630   -1.3184   -0.1856 C.3       2 UNK         0.0209 
     33 CB         24.7929   -0.9818    1.1014 C.3       2 UNK        -0.1931 
     34 N          25.3169   -2.7190   -0.5460 N.am      2 UNK        -0.4546 
     35 C          25.8863   -3.3608   -1.5768 C.2       1 UNK         0.5154 
     36 O          26.7048   -2.8398   -2.3321 O.2       1 UNK        -0.5181 
     37 C          29.2161    1.7450   -4.4750 C.2       5 UNK         0.5014 
     38 O          30.2895    2.3324   -4.6233 O.2       5 UNK        -0.5248 
     39 N          28.0334    2.2370   -4.8711 N.am      6 UNK        -0.4434 
     40 CA         27.8639    3.4678   -5.6397 C.3       6 UNK         0.0363 
     41 CB         26.7640    4.3205   -4.9855 C.3       6 UNK        -0.1936 
     42 C          27.5084    3.1741   -7.1055 C.2       6 UNK         0.5081 
     43 O          27.9927    3.8788   -7.9912 O.2       6 UNK        -0.5248 
     44 N          26.6366    2.1831   -7.3416 N.am      7 UNK        -0.4718 
     45 CA         26.0392    1.9189   -8.6515 C.3       7 UNK         0.0273 
     46 CB         24.7608    1.0851   -8.4688 C.3       7 UNK        -0.1935 
     47 C          26.9721    1.2474   -9.6722 C.2       7 UNK         0.5018 
     48 O          26.8137    1.5047  -10.8668 O.2       7 UNK        -0.5186 
     49 N          27.9065    0.3939   -9.2288 N.am      8 UNK        -0.4240 
     50 CA         28.7292   -0.4531  -10.1061 C.3       8 UNK         0.0235 
     51 CB         29.1141   -1.7341   -9.3498 C.3       8 UNK        -0.2000 
     52 C          29.9483    0.2698  -10.7206 C.2       8 UNK         0.4941 
     53 O          31.0485   -0.2895  -10.7481 O.2       8 UNK        -0.5273 
     54 N          29.7219    1.4839  -11.2427 N.am      9 UNK        -0.4262 
     55 CA         30.6717    2.3521  -11.9461 C.3       9 UNK         0.0264 
     56 CB         30.9791    1.7820  -13.3501 C.3       9 UNK        -0.1955 
     57 C          31.9277    2.6513  -11.1046 C.2       9 UNK         0.5031 
     58 O          31.8513    3.4613  -10.1798 O.2       9 UNK        -0.5390 
     59 N          33.0550    2.0106  -11.4430 N.am      10 UNK        -0.4204 
     60 CA         34.3333    2.1326  -10.7394 C.3       10 UNK         0.0237 
     61 CB         35.4555    1.5740  -11.6299 C.3       10 UNK        -0.1985 
     62 C          34.3443    1.4427   -9.3632 C.2       10 UNK         0.4970 
     63 O          35.1105    1.8643   -8.4957 O.2       10 UNK        -0.4914 
     64 N          33.5169    0.4051   -9.1853 N.am      11 UNK        -0.4285 
     65 CA         33.3029   -0.2715   -7.9028 C.3       11 UNK         0.1007 
     66 C          32.2220    0.4952   -7.0922 C.2       11 UNK         0.5703 
     67 N          32.4805    0.8026   -5.8285 N.am      11 UNK        -0.7361 
     68 O          31.1526    0.8154   -7.6018 O.2       11 UNK        -0.4986 
     69 C69        32.9591   -1.7659   -8.1394 C.3       12 UNK        -0.0947 
     70 S70        32.9866   -2.7728   -6.6176 S.3       12 UNK        -0.2240 
     71 C71        31.2015   -3.0284   -6.3814 C.3       12 UNK         0.0194 
     72 H72        21.7493   -4.5661   -4.5522 H         1 UNK         0.0906 
     73 H73        22.9009   -3.4355   -5.2692 H         1 UNK         0.0906 
     74 H74        23.2640   -5.1623   -5.2317 H         1 UNK         0.0906 
     75 H75        24.9404   -5.4760   -3.7722 H         1 UNK         0.3140 
     76 H76        24.7367   -5.0684   -1.0202 H         1 UNK         0.1085 
     77 H77        26.1635   -6.7910   -1.4772 H         1 UNK         0.0836 
     78 H78        27.3370   -5.5604   -1.1559 H         1 UNK         0.0836 
     79 H79        29.4990   -7.0680   -3.7894 H         1 UNK         0.0731 
     80 H80        29.2333   -6.6275   -2.1273 H         1 UNK         0.0731 
     81 H81        29.9877   -5.3390   -5.5274 H         1 UNK         0.1312 
     82 H82        31.6237   -1.6466   -4.1052 H         1 UNK         0.1406 
     83 H83        29.6143   -4.2826   -1.3862 H         1 UNK         0.1631 
     84 H84        31.6110   -1.1299   -1.7356 H         1 UNK         0.0717 
     85 H85        31.1002   -2.3484   -0.5927 H         1 UNK         0.0717 
     86 H86        28.6346    1.2501   -1.8792 H         1 UNK         0.0934 
     87 H87        30.3529    1.0296   -2.0326 H         1 UNK         0.0934 
     88 H88        30.1138   -0.1278   -4.1611 H         1 UNK         0.0739 
     89 H89        27.5429   -0.8637   -3.3860 H         1 UNK         0.3093 
     90 H90        26.0581   -1.3323   -6.5769 H         1 UNK         0.0818 
     91 H91        27.1860   -3.4898   -4.7280 H         1 UNK         0.0819 
     92 H92        25.7641   -3.6920   -5.7551 H         1 UNK         0.0819 
     93 H93        27.3440   -3.4060   -6.4677 H         1 UNK         0.0819 
     94 H94        25.2223   -1.9776   -3.9157 H         1 UNK         0.3041 
     95 H95        23.9022    1.2122   -3.0584 H         1 UNK         0.0784 
     96 H96        22.1861    0.4280   -4.6604 H         1 UNK         0.0793 
     97 H97        22.3836   -1.2308   -4.1180 H         1 UNK         0.0793 
     98 H98        21.7344   -0.0137   -3.0216 H         1 UNK         0.0793 
     99 H99        23.7450   -1.5224   -2.0266 H         1 UNK         0.3024 
    100 H100       26.6299   -1.2163    0.0196 H         1 UNK         0.1171 
    101 H101       25.1008   -1.6223    1.9281 H         1 UNK         0.0786 
    102 H102       24.9776    0.0491    1.4075 H         1 UNK         0.0786 
    103 H103       23.7161   -1.0948    0.9693 H         1 UNK         0.0786 
    104 H104       24.6162   -3.2030   -0.0027 H         1 UNK         0.2977 
    105 H105       27.2008    1.6787   -4.7249 H         1 UNK         0.3127 
    106 H106       28.7871    4.0513   -5.6360 H         1 UNK         0.0770 
    107 H107       25.8083    3.7952   -4.9534 H         1 UNK         0.0814 
    108 H108       26.6090    5.2481   -5.5383 H         1 UNK         0.0814 
    109 H109       27.0304    4.5925   -3.9642 H         1 UNK         0.0814 
    110 H110       26.2400    1.6732   -6.5564 H         1 UNK         0.2983 
    111 H111       25.7437    2.8801   -9.0788 H         1 UNK         0.0947 
    112 H112       24.2582    0.9262   -9.4240 H         1 UNK         0.0806 
    113 H113       24.0510    1.5850   -7.8093 H         1 UNK         0.0806 
    114 H114       24.9742    0.1036   -8.0471 H         1 UNK         0.0806 
    115 H115       28.0386    0.2681   -8.2281 H         1 UNK         0.3000 
    116 H116       28.1130   -0.7662  -10.9518 H         1 UNK         0.0850 
    117 H117       29.6705   -2.4234   -9.9860 H         1 UNK         0.0810 
    118 H118       28.2343   -2.2635   -8.9840 H         1 UNK         0.0810 
    119 H119       29.7396   -1.4951   -8.4938 H         1 UNK         0.0810 
    120 H120       28.7732    1.8364  -11.1647 H         1 UNK         0.3040 
    121 H121       30.1667    3.3091  -12.0866 H         1 UNK         0.0766 
    122 H122       30.0719    1.7258  -13.9518 H         1 UNK         0.0812 
    123 H123       31.4038    0.7784  -13.3101 H         1 UNK         0.0812 
    124 H124       31.6788    2.4205  -13.8915 H         1 UNK         0.0812 
    125 H125       33.0117    1.3457  -12.2020 H         1 UNK         0.3205 
    126 H126       34.5278    3.1945  -10.5734 H         1 UNK         0.0754 
    127 H127       36.4270    1.6786  -11.1446 H         1 UNK         0.0769 
    128 H128       35.5114    2.1065  -12.5796 H         1 UNK         0.0769 
    129 H129       35.3115    0.5144  -11.8454 H         1 UNK         0.0769 
    130 H130       32.8407    0.1810   -9.9089 H         1 UNK         0.2981 
    131 H131       34.2387   -0.2437   -7.3405 H         1 UNK         0.0541 
    132 H132       33.3585    0.5652   -5.3956 H         1 UNK         0.3459 
    133 H133       31.7859    1.3443   -5.3241 H         1 UNK         0.3459 
    134 H134       32.0019   -1.8717   -8.6494 H         1 UNK         0.0612 
    135 H135       33.6968   -2.2032   -8.8139 H         1 UNK         0.0612 
    136 H136       30.8377   -3.7503   -7.1140 H         1 UNK         0.0624 
    137 H137       30.6826   -2.0909   -6.5767 H         1 UNK         0.0624 
@<TRIPOS>BOND
     1    1    2 1    
     2    1   72 1    
     3    1   73 1    
     4    1   74 1    
     5    2    3 2    
     6    2    4 am   BACKBONE|DICT|INTERRES
     7    4    5 1    
     8    4   75 1    
     9    5    6 1    
    10    5   35 1    
    11    5   76 1    
    12    6    7 1    
    13    6   77 1    
    14    6   78 1    
    15    7    8 1    
    16    8    9 1    
    17    8   79 1    
    18    8   80 1    
    19    9   10 ar   
    20    9   14 ar   
    21   10   11 ar   
    22   10   81 1    
    23   11   12 ar   
    24   11   71 1    
    25   12   13 ar   
    26   12   82 1    
    27   13   14 ar   
    28   13   15 1    
    29   14   83 1    
    30   15   16 1    
    31   15   84 1    
    32   15   85 1    
    33   16   17 1    
    34   17   18 1    
    35   17   86 1    
    36   17   87 1    
    37   18   19 1    
    38   18   37 1    
    39   18   88 1    
    40   19   20 am   BACKBONE|DICT|INTERRES
    41   19   89 1    
    42   20   21 2    
    43   20   22 1    
    44   22   23 1    
    45   22   24 1    
    46   22   90 1    
    47   23   91 1    
    48   23   92 1    
    49   23   93 1    
    50   24   25 am   BACKBONE|DICT|INTERRES
    51   24   94 1    
    52   25   26 2    
    53   25   27 1    
    54   27   28 1    
    55   27   29 1    
    56   27   95 1    
    57   28   96 1    
    58   28   97 1    
    59   28   98 1    
    60   29   30 am   BACKBONE|DICT|INTERRES
    61   29   99 1    
    62   30   31 2    
    63   30   32 1    
    64   32   33 1    
    65   32   34 1    
    66   32  100 1    
    67   33  101 1    
    68   33  102 1    
    69   33  103 1    
    70   34   35 am   BACKBONE|DICT|INTERRES
    71   34  104 1    
    72   35   36 2    
    73   37   38 2    
    74   37   39 am   BACKBONE|DICT|INTERRES
    75   39   40 1    
    76   39  105 1    
    77   40   41 1    
    78   40   42 1    
    79   40  106 1    
    80   41  107 1    
    81   41  108 1    
    82   41  109 1    
    83   42   43 2    
    84   42   44 am   BACKBONE|DICT|INTERRES
    85   44   45 1    
    86   44  110 1    
    87   45   46 1    
    88   45   47 1    
    89   45  111 1    
    90   46  112 1    
    91   46  113 1    
    92   46  114 1    
    93   47   48 2    
    94   47   49 am   BACKBONE|DICT|INTERRES
    95   49   50 1    
    96   49  115 1    
    97   50   51 1    
    98   50   52 1    
    99   50  116 1    
   100   51  117 1    
   101   51  118 1    
   102   51  119 1    
   103   52   53 2    
   104   52   54 am   BACKBONE|DICT|INTERRES
   105   54   55 1    
   106   54  120 1    
   107   55   56 1    
   108   55   57 1    
   109   55  121 1    
   110   56  122 1    
   111   56  123 1    
   112   56  124 1    
   113   57   58 2    
   114   57   59 am   BACKBONE|DICT|INTERRES
   115   59   60 1    
   116   59  125 1    
   117   60   61 1    
   118   60   62 1    
   119   60  126 1    
   120   61  127 1    
   121   61  128 1    
   122   61  129 1    
   123   62   63 2    
   124   62   64 am   BACKBONE|DICT|INTERRES
   125   64   65 1    
   126   64  130 1    
   127   65   66 1    
   128   65   69 1    
   129   65  131 1    
   130   66   67 am   BACKBONE|DICT|INTERRES
   131   66   68 2    
   132   67  132 1    
   133   67  133 1    
   134   69   70 1    
   135   69  134 1    
   136   69  135 1    
   137   70   71 1    
   138   71  136 1    
   139   71  137 1    
@<TRIPOS>SUBSTRUCTURE
     1 UNK         1 GROUP             0       ****    0 ROOT    
