@<TRIPOS>MOLECULE
3R137
137   139    1
SMALL
USER_CHARGES


@<TRIPOS>ATOM
      1 CA         23.9651    0.5554    3.2517 C.3       0 UNK        -0.2020 
      2 C          24.1475    0.4906    1.7426 C.2       0 UNK         0.4855 
      3 O          23.2246    0.8286    1.0016 O.2       0 UNK        -0.5197 
      4 N          25.3335    0.0665    1.2854 N.am      1 UNK        -0.4892 
      5 CA         25.6827   -0.1041   -0.1301 C.3       1 UNK         0.0835 
      6 C6         27.2193   -0.2430   -0.3002 C.3       12 UNK        -0.0855 
      7 S7         27.8210   -0.5692   -1.9989 S.3       12 UNK        -0.2931 
      8 C8         28.8413   -2.0417   -1.6747 C.3       12 UNK         0.0378 
      9 C9         29.6165   -2.4892   -2.9028 C.ar      12 UNK        -0.0802 
     10 C10        30.8822   -1.9553   -3.1667 C.ar      12 UNK        -0.0944 
     11 C11        31.6219   -2.3989   -4.2666 C.ar      12 UNK        -0.0787 
     12 C12        31.0894   -3.3841   -5.1011 C.ar      12 UNK        -0.0862 
     13 C13        29.8184   -3.9133   -4.8574 C.ar      12 UNK        -0.0733 
     14 C14        29.0882   -3.4649   -3.7538 C.ar      12 UNK        -0.0832 
     15 C15        29.2418   -4.9716   -5.7888 C.3       12 UNK         0.0240 
     16 S16        27.9041   -4.3288   -6.8490 S.3       12 UNK        -0.2522 
     17 C17        28.6735   -2.8567   -7.6203 C.3       12 UNK        -0.0967 
     18 CA         27.9099   -1.5139   -7.4161 C.3       5 UNK         0.0660 
     19 N          26.9177   -1.5301   -6.3291 N.am      5 UNK        -0.4015 
     20 C          25.9661   -0.6009   -6.1636 C.2       4 UNK         0.4946 
     21 O          25.8955    0.4078   -6.8677 O.2       4 UNK        -0.5353 
     22 CA         24.9589   -0.7827   -5.0124 C.3       4 UNK         0.0277 
     23 CB         23.5883   -0.1525   -5.3372 C.3       4 UNK        -0.1981 
     24 N          24.7829   -2.1574   -4.5268 N.am      4 UNK        -0.4209 
     25 C          24.3633   -3.2350   -5.2076 C.2       3 UNK         0.4942 
     26 O          24.1685   -3.2382   -6.4231 O.2       3 UNK        -0.5208 
     27 CA         24.0508   -4.5205   -4.4096 C.3       3 UNK         0.0250 
     28 CB         25.0629   -5.6430   -4.7213 C.3       3 UNK        -0.1990 
     29 N          23.8680   -4.3183   -2.9605 N.am      3 UNK        -0.4232 
     30 C          24.8019   -4.0522   -2.0365 C.2       2 UNK         0.4993 
     31 O          26.0110   -4.0334   -2.2610 O.2       2 UNK        -0.5286 
     32 CA         24.2995   -3.6804   -0.6295 C.3       2 UNK         0.0209 
     33 CB         24.5690   -4.8231    0.3626 C.3       2 UNK        -0.1931 
     34 N          24.9339   -2.4505   -0.1383 N.am      2 UNK        -0.4546 
     35 C          24.8818   -1.2623   -0.7617 C.2       1 UNK         0.5154 
     36 O          24.2152   -1.0556   -1.7765 O.2       1 UNK        -0.5181 
     37 C          28.8785   -0.3109   -7.3261 C.2       5 UNK         0.5014 
     38 O          29.4371    0.0956   -8.3466 O.2       5 UNK        -0.5248 
     39 N          29.0213    0.2704   -6.1258 N.am      6 UNK        -0.4434 
     40 CA         29.7281    1.5265   -5.8767 C.3       6 UNK         0.0363 
     41 CB         29.8836    1.7316   -4.3621 C.3       6 UNK        -0.1936 
     42 C          29.0520    2.7484   -6.5212 C.2       6 UNK         0.5081 
     43 O          29.7594    3.6630   -6.9412 O.2       6 UNK        -0.5248 
     44 N          27.7144    2.7409   -6.6347 N.am      7 UNK        -0.4718 
     45 CA         26.9500    3.7888   -7.3229 C.3       7 UNK         0.0273 
     46 CB         25.4777    3.7404   -6.8832 C.3       7 UNK        -0.1935 
     47 C          27.0701    3.6756   -8.8521 C.2       7 UNK         0.5018 
     48 O          27.0289    4.6948   -9.5412 O.2       7 UNK        -0.5186 
     49 N          27.2628    2.4447   -9.3471 N.am      8 UNK        -0.4240 
     50 CA         27.5996    2.1421  -10.7409 C.3       8 UNK         0.0235 
     51 CB         27.2020    0.6869  -11.0436 C.3       8 UNK        -0.2000 
     52 C          29.0899    2.3761  -11.0667 C.2       8 UNK         0.4941 
     53 O          29.4578    2.3062  -12.2398 O.2       8 UNK        -0.5273 
     54 N          29.9138    2.6294  -10.0363 N.am      9 UNK        -0.4262 
     55 CA         31.3695    2.8119  -10.0625 C.3       9 UNK         0.0264 
     56 CB         31.7542    4.0860  -10.8443 C.3       9 UNK        -0.1955 
     57 C          32.1294    1.5576  -10.5386 C.2       9 UNK         0.5031 
     58 O          33.1739    1.6782  -11.1821 O.2       9 UNK        -0.5390 
     59 N          31.6077    0.3698  -10.2003 N.am      10 UNK        -0.4204 
     60 CA         32.1773   -0.9263  -10.5832 C.3       10 UNK         0.0237 
     61 CB         31.0837   -1.9990  -10.4697 C.3       10 UNK        -0.1985 
     62 C          33.4099   -1.3328   -9.7532 C.2       10 UNK         0.4970 
     63 O          34.0969   -2.2819  -10.1326 O.2       10 UNK        -0.4914 
     64 N          33.6559   -0.6370   -8.6359 N.am      11 UNK        -0.4285 
     65 CA         34.7374   -0.9122   -7.6753 C.3       11 UNK         0.1007 
     66 C          36.1762   -0.6395   -8.2040 C.2       11 UNK         0.5703 
     67 N          36.3554    0.0665   -9.3147 N.am      11 UNK        -0.7361 
     68 O          37.1472   -1.0812   -7.5941 O.2       11 UNK        -0.4986 
     69 C69        34.5081   -0.1860   -6.3209 C.3       12 UNK        -0.0947 
     70 S70        32.8143   -0.3819   -5.6774 S.3       12 UNK        -0.2240 
     71 C71        32.9887   -1.8090   -4.5722 C.3       12 UNK         0.0194 
     72 H72        24.8602    0.2381    3.7865 H         1 UNK         0.0906 
     73 H73        23.7313    1.5747    3.5579 H         1 UNK         0.0906 
     74 H74        23.1415   -0.0893    3.5577 H         1 UNK         0.0906 
     75 H75        26.0515   -0.1848    1.9505 H         1 UNK         0.3140 
     76 H76        25.3791    0.8045   -0.6556 H         1 UNK         0.1085 
     77 H77        27.7017    0.6741    0.0420 H         1 UNK         0.0836 
     78 H78        27.5876   -1.0268    0.3639 H         1 UNK         0.0836 
     79 H79        28.2043   -2.8514   -1.3158 H         1 UNK         0.0731 
     80 H80        29.5412   -1.8240   -0.8662 H         1 UNK         0.0731 
     81 H81        31.2916   -1.1947   -2.5158 H         1 UNK         0.1312 
     82 H82        31.6604   -3.7244   -5.9543 H         1 UNK         0.1406 
     83 H83        28.1110   -3.8817   -3.5569 H         1 UNK         0.1631 
     84 H84        28.8535   -5.8016   -5.1968 H         1 UNK         0.0717 
     85 H85        30.0228   -5.3913   -6.4248 H         1 UNK         0.0717 
     86 H86        29.7098   -2.7788   -7.2947 H         1 UNK         0.0934 
     87 H87        28.7419   -3.0619   -8.6896 H         1 UNK         0.0934 
     88 H88        27.3294   -1.3509   -8.3270 H         1 UNK         0.0739 
     89 H89        26.9144   -2.3524   -5.7423 H         1 UNK         0.3093 
     90 H90        25.3793   -0.2279   -4.1725 H         1 UNK         0.0818 
     91 H91        23.1227   -0.6254   -6.2024 H         1 UNK         0.0819 
     92 H92        22.9034   -0.2426   -4.4939 H         1 UNK         0.0819 
     93 H93        23.6842    0.9111   -5.5591 H         1 UNK         0.0819 
     94 H94        24.9075   -2.2622   -3.5267 H         1 UNK         0.3041 
     95 H95        23.0792   -4.8600   -4.7720 H         1 UNK         0.0784 
     96 H96        25.0631   -5.8780   -5.7865 H         1 UNK         0.0793 
     97 H97        26.0831   -5.3626   -4.4597 H         1 UNK         0.0793 
     98 H98        24.8176   -6.5604   -4.1866 H         1 UNK         0.0793 
     99 H99        22.9011   -4.2897   -2.6655 H         1 UNK         0.3024 
    100 H100       23.2230   -3.5006   -0.6705 H         1 UNK         0.1171 
    101 H101       24.0900   -5.7464    0.0338 H         1 UNK         0.0786 
    102 H102       25.6362   -5.0274    0.4610 H         1 UNK         0.0786 
    103 H103       24.1776   -4.5913    1.3534 H         1 UNK         0.0786 
    104 H104       25.5021   -2.5333    0.6913 H         1 UNK         0.2977 
    105 H105       28.5551   -0.1505   -5.3352 H         1 UNK         0.3127 
    106 H106       30.7216    1.4458   -6.3193 H         1 UNK         0.0770 
    107 H107       28.9174    1.8108   -3.8624 H         1 UNK         0.0814 
    108 H108       30.4393    2.6453   -4.1476 H         1 UNK         0.0814 
    109 H109       30.4309    0.9072   -3.9052 H         1 UNK         0.0814 
    110 H110       27.1914    1.9235   -6.3389 H         1 UNK         0.2983 
    111 H111       27.3564    4.7600   -7.0309 H         1 UNK         0.0947 
    112 H112       24.9189    4.5726   -7.3131 H         1 UNK         0.0806 
    113 H113       25.3828    3.8119   -5.7996 H         1 UNK         0.0806 
    114 H114       24.9850    2.8225   -7.2043 H         1 UNK         0.0806 
    115 H115       27.2543    1.6676   -8.7001 H         1 UNK         0.3000 
    116 H116       27.0170    2.7980  -11.3915 H         1 UNK         0.0850 
    117 H117       27.3608    0.4514  -12.0968 H         1 UNK         0.0810 
    118 H118       26.1483    0.5084  -10.8284 H         1 UNK         0.0810 
    119 H119       27.7897   -0.0239  -10.4627 H         1 UNK         0.0810 
    120 H120       29.5006    2.6497   -9.1139 H         1 UNK         0.3040 
    121 H121       31.6688    2.9643   -9.0245 H         1 UNK         0.0766 
    122 H122       31.2112    4.9561  -10.4753 H         1 UNK         0.0812 
    123 H123       31.5459    3.9863  -11.9099 H         1 UNK         0.0812 
    124 H124       32.8182    4.3019  -10.7411 H         1 UNK         0.0812 
    125 H125       30.7624    0.3465   -9.6302 H         1 UNK         0.3205 
    126 H126       32.4906   -0.8689  -11.6278 H         1 UNK         0.0754 
    127 H127       31.4350   -2.9595  -10.8491 H         1 UNK         0.0769 
    128 H128       30.1948   -1.7283  -11.0401 H         1 UNK         0.0769 
    129 H129       30.7886   -2.1471   -9.4322 H         1 UNK         0.0769 
    130 H130       33.0301    0.1139   -8.3894 H         1 UNK         0.2981 
    131 H131       34.6985   -1.9840   -7.4721 H         1 UNK         0.0541 
    132 H132       37.2913    0.2336   -9.6486 H         1 UNK         0.3459 
    133 H133       35.5639    0.4294   -9.8230 H         1 UNK         0.3459 
    134 H134       34.6893    0.8846   -6.4328 H         1 UNK         0.0612 
    135 H135       35.2172   -0.5367   -5.5686 H         1 UNK         0.0612 
    136 H136       33.6241   -2.5618   -5.0413 H         1 UNK         0.0624 
    137 H137       33.4908   -1.5007   -3.6540 H         1 UNK         0.0624 
@<TRIPOS>BOND
     1    1    2 1    
     2    1   72 1    
     3    1   73 1    
     4    1   74 1    
     5    2    3 2    
     6    2    4 am   BACKBONE|DICT|INTERRES
     7    4    5 1    
     8    4   75 1    
     9    5    6 1    
    10    5   35 1    
    11    5   76 1    
    12    6    7 1    
    13    6   77 1    
    14    6   78 1    
    15    7    8 1    
    16    8    9 1    
    17    8   79 1    
    18    8   80 1    
    19    9   10 ar   
    20    9   14 ar   
    21   10   11 ar   
    22   10   81 1    
    23   11   12 ar   
    24   11   71 1    
    25   12   13 ar   
    26   12   82 1    
    27   13   14 ar   
    28   13   15 1    
    29   14   83 1    
    30   15   16 1    
    31   15   84 1    
    32   15   85 1    
    33   16   17 1    
    34   17   18 1    
    35   17   86 1    
    36   17   87 1    
    37   18   19 1    
    38   18   37 1    
    39   18   88 1    
    40   19   20 am   BACKBONE|DICT|INTERRES
    41   19   89 1    
    42   20   21 2    
    43   20   22 1    
    44   22   23 1    
    45   22   24 1    
    46   22   90 1    
    47   23   91 1    
    48   23   92 1    
    49   23   93 1    
    50   24   25 am   BACKBONE|DICT|INTERRES
    51   24   94 1    
    52   25   26 2    
    53   25   27 1    
    54   27   28 1    
    55   27   29 1    
    56   27   95 1    
    57   28   96 1    
    58   28   97 1    
    59   28   98 1    
    60   29   30 am   BACKBONE|DICT|INTERRES
    61   29   99 1    
    62   30   31 2    
    63   30   32 1    
    64   32   33 1    
    65   32   34 1    
    66   32  100 1    
    67   33  101 1    
    68   33  102 1    
    69   33  103 1    
    70   34   35 am   BACKBONE|DICT|INTERRES
    71   34  104 1    
    72   35   36 2    
    73   37   38 2    
    74   37   39 am   BACKBONE|DICT|INTERRES
    75   39   40 1    
    76   39  105 1    
    77   40   41 1    
    78   40   42 1    
    79   40  106 1    
    80   41  107 1    
    81   41  108 1    
    82   41  109 1    
    83   42   43 2    
    84   42   44 am   BACKBONE|DICT|INTERRES
    85   44   45 1    
    86   44  110 1    
    87   45   46 1    
    88   45   47 1    
    89   45  111 1    
    90   46  112 1    
    91   46  113 1    
    92   46  114 1    
    93   47   48 2    
    94   47   49 am   BACKBONE|DICT|INTERRES
    95   49   50 1    
    96   49  115 1    
    97   50   51 1    
    98   50   52 1    
    99   50  116 1    
   100   51  117 1    
   101   51  118 1    
   102   51  119 1    
   103   52   53 2    
   104   52   54 am   BACKBONE|DICT|INTERRES
   105   54   55 1    
   106   54  120 1    
   107   55   56 1    
   108   55   57 1    
   109   55  121 1    
   110   56  122 1    
   111   56  123 1    
   112   56  124 1    
   113   57   58 2    
   114   57   59 am   BACKBONE|DICT|INTERRES
   115   59   60 1    
   116   59  125 1    
   117   60   61 1    
   118   60   62 1    
   119   60  126 1    
   120   61  127 1    
   121   61  128 1    
   122   61  129 1    
   123   62   63 2    
   124   62   64 am   BACKBONE|DICT|INTERRES
   125   64   65 1    
   126   64  130 1    
   127   65   66 1    
   128   65   69 1    
   129   65  131 1    
   130   66   67 am   BACKBONE|DICT|INTERRES
   131   66   68 2    
   132   67  132 1    
   133   67  133 1    
   134   69   70 1    
   135   69  134 1    
   136   69  135 1    
   137   70   71 1    
   138   71  136 1    
   139   71  137 1    
@<TRIPOS>SUBSTRUCTURE
     1 UNK         1 GROUP             0       ****    0 ROOT    
