@<TRIPOS>MOLECULE
3R137
137   139    1
SMALL
USER_CHARGES


@<TRIPOS>ATOM
      1 CA         23.9011   -6.3203   -3.4628 C.3       0 UNK        -0.2020 
      2 C          25.0709   -5.3672   -3.2736 C.2       0 UNK         0.4855 
      3 O          25.4119   -4.6313   -4.1991 O.2       0 UNK        -0.5197 
      4 N          25.6763   -5.3623   -2.0768 N.am      1 UNK        -0.4892 
      5 CA         26.8273   -4.5294   -1.6963 C.3       1 UNK         0.0835 
      6 C6         28.1244   -4.9560   -2.4443 C.3       12 UNK        -0.0855 
      7 S7         29.6354   -4.7117   -1.4527 S.3       12 UNK        -0.2931 
      8 C8         30.8726   -4.2738   -2.7302 C.3       12 UNK         0.0378 
      9 C9         30.8807   -2.8026   -3.1490 C.ar      12 UNK        -0.0802 
     10 C10        31.2832   -2.4542   -4.4448 C.ar      12 UNK        -0.0944 
     11 C11        31.3230   -1.1129   -4.8426 C.ar      12 UNK        -0.0787 
     12 C12        30.9681   -0.1136   -3.9350 C.ar      12 UNK        -0.0862 
     13 C13        30.5626   -0.4433   -2.6417 C.ar      12 UNK        -0.0733 
     14 C14        30.5348   -1.7849   -2.2521 C.ar      12 UNK        -0.0832 
     15 C15        30.1521    0.6401   -1.6576 C.3       12 UNK         0.0240 
     16 S16        28.3848    0.5112   -1.2497 S.3       12 UNK        -0.2522 
     17 C17        27.5970    1.7120   -2.3696 C.3       12 UNK        -0.0967 
     18 CA         27.7808    1.4937   -3.8976 C.3       5 UNK         0.0660 
     19 N          27.4674    0.1400   -4.3787 N.am      5 UNK        -0.4015 
     20 C          27.6643   -0.2769   -5.6436 C.2       4 UNK         0.4946 
     21 O          28.2325    0.3891   -6.5108 O.2       4 UNK        -0.5353 
     22 CA         27.0923   -1.6457   -6.0465 C.3       4 UNK         0.0277 
     23 CB         28.0977   -2.7611   -5.7402 C.3       4 UNK        -0.1981 
     24 N          25.8049   -1.9313   -5.4111 N.am      4 UNK        -0.4209 
     25 C          24.6825   -1.2348   -5.6464 C.2       3 UNK         0.4942 
     26 O          24.6003   -0.3315   -6.4771 O.2       3 UNK        -0.5208 
     27 CA         23.4638   -1.5471   -4.7645 C.3       3 UNK         0.0250 
     28 CB         22.6713   -2.7458   -5.3094 C.3       3 UNK        -0.1990 
     29 N          23.8452   -1.7766   -3.3695 N.am      3 UNK        -0.4232 
     30 C          24.3486   -0.8260   -2.5680 C.2       2 UNK         0.4993 
     31 O          24.4689    0.3532   -2.9031 O.2       2 UNK        -0.5286 
     32 CA         24.8326   -1.2675   -1.1757 C.3       2 UNK         0.0209 
     33 CB         23.6963   -1.1472   -0.1482 C.3       2 UNK        -0.1931 
     34 N          25.3787   -2.6300   -1.1459 N.am      2 UNK        -0.4546 
     35 C          26.4794   -3.0249   -1.8056 C.2       1 UNK         0.5154 
     36 O          27.1362   -2.2714   -2.5226 O.2       1 UNK        -0.5181 
     37 C          26.9645    2.5594   -4.6533 C.2       5 UNK         0.5014 
     38 O          27.5424    3.5315   -5.1407 O.2       5 UNK        -0.5248 
     39 N          25.6404    2.3551   -4.7301 N.am      6 UNK        -0.4434 
     40 CA         24.6926    3.2559   -5.3904 C.3       6 UNK         0.0363 
     41 CB         23.2561    2.7939   -5.0976 C.3       6 UNK        -0.1936 
     42 C          24.9275    3.3802   -6.9050 C.2       6 UNK         0.5081 
     43 O          24.8792    4.4903   -7.4359 O.2       6 UNK        -0.5248 
     44 N          25.1853    2.2469   -7.5701 N.am      7 UNK        -0.4718 
     45 CA         25.4751    2.1786   -9.0038 C.3       7 UNK         0.0273 
     46 CB         25.2583    0.7352   -9.4873 C.3       7 UNK        -0.1935 
     47 C          26.8943    2.6456   -9.3709 C.2       7 UNK         0.5018 
     48 O          27.1128    3.0075  -10.5277 O.2       7 UNK        -0.5186 
     49 N          27.8267    2.5908   -8.4055 N.am      8 UNK        -0.4240 
     50 CA         29.2800    2.7421   -8.5583 C.3       8 UNK         0.0235 
     51 CB         29.6573    4.1794   -8.9745 C.3       8 UNK        -0.2000 
     52 C          29.8385    1.6613   -9.5033 C.2       8 UNK         0.4941 
     53 O          30.4903    1.9751  -10.5027 O.2       8 UNK        -0.5273 
     54 N          29.5059    0.3999   -9.1962 N.am      9 UNK        -0.4262 
     55 CA         29.7265   -0.7729  -10.0467 C.3       9 UNK         0.0264 
     56 CB         28.7958   -1.9068   -9.5823 C.3       9 UNK        -0.1955 
     57 C          31.2028   -1.2109  -10.1120 C.2       9 UNK         0.5031 
     58 O          31.5536   -2.2722   -9.5925 O.2       9 UNK        -0.5390 
     59 N          32.0287   -0.3860  -10.7685 N.am      10 UNK        -0.4204 
     60 CA         33.4667   -0.5419  -11.0072 C.3       10 UNK         0.0237 
     61 CB         33.7738   -1.7891  -11.8677 C.3       10 UNK        -0.1985 
     62 C          34.2697   -0.4772   -9.6979 C.2       10 UNK         0.4970 
     63 O          34.6389    0.6266   -9.2952 O.2       10 UNK        -0.4914 
     64 N          34.5104   -1.6427   -9.0782 N.am      11 UNK        -0.4285 
     65 CA         35.2458   -1.8657   -7.8198 C.3       11 UNK         0.1007 
     66 C          36.6134   -1.1208   -7.7178 C.2       11 UNK         0.5703 
     67 N          36.9876   -0.5922   -6.5597 N.am      11 UNK        -0.7361 
     68 O          37.3765   -1.0805   -8.6816 O.2       11 UNK        -0.4986 
     69 C69        34.3320   -1.8091   -6.5561 C.3       12 UNK        -0.0947 
     70 S70        33.4877   -0.2127   -6.2853 S.3       12 UNK        -0.2240 
     71 C71        31.7421   -0.7208   -6.2495 C.3       12 UNK         0.0194 
     72 H72        24.1007   -6.9949   -4.2949 H         1 UNK         0.0906 
     73 H73        23.7166   -6.9235   -2.5742 H         1 UNK         0.0906 
     74 H74        22.9937   -5.7610   -3.6887 H         1 UNK         0.0906 
     75 H75        25.3388   -5.9858   -1.3554 H         1 UNK         0.3140 
     76 H76        26.9810   -4.7202   -0.6326 H         1 UNK         0.1085 
     77 H77        28.2109   -4.4678   -3.4123 H         1 UNK         0.0836 
     78 H78        28.0849   -6.0227   -2.6704 H         1 UNK         0.0836 
     79 H79        30.7219   -4.9155   -3.5999 H         1 UNK         0.0731 
     80 H80        31.8623   -4.5149   -2.3407 H         1 UNK         0.0731 
     81 H81        31.5644   -3.2269   -5.1470 H         1 UNK         0.1312 
     82 H82        31.0075    0.9218   -4.2432 H         1 UNK         0.1406 
     83 H83        30.2246   -2.0289   -1.2459 H         1 UNK         0.1631 
     84 H84        30.3782    1.6366   -2.0397 H         1 UNK         0.0717 
     85 H85        30.7327    0.5232   -0.7416 H         1 UNK         0.0717 
     86 H86        26.5378    1.7205   -2.1086 H         1 UNK         0.0934 
     87 H87        27.9682    2.7010   -2.0931 H         1 UNK         0.0934 
     88 H88        28.8277    1.6786   -4.1367 H         1 UNK         0.0739 
     89 H89        27.0904   -0.5149   -3.7014 H         1 UNK         0.3093 
     90 H90        26.9222   -1.6312   -7.1247 H         1 UNK         0.0818 
     91 H91        28.9993   -2.6525   -6.3416 H         1 UNK         0.0819 
     92 H92        28.4148   -2.7212   -4.7009 H         1 UNK         0.0819 
     93 H93        27.6836   -3.7498   -5.9381 H         1 UNK         0.0819 
     94 H94        25.7829   -2.6905   -4.7364 H         1 UNK         0.3041 
     95 H95        22.8074   -0.6744   -4.7890 H         1 UNK         0.0784 
     96 H96        22.3230   -2.5474   -6.3239 H         1 UNK         0.0793 
     97 H97        23.2737   -3.6528   -5.3484 H         1 UNK         0.0793 
     98 H98        21.7911   -2.9513   -4.7001 H         1 UNK         0.0793 
     99 H99        23.8121   -2.7267   -3.0313 H         1 UNK         0.3024 
    100 H100       25.6317   -0.5836   -0.8828 H         1 UNK         0.1171 
    101 H101       24.0488   -1.3630    0.8606 H         1 UNK         0.0786 
    102 H102       23.2878   -0.1355   -0.1365 H         1 UNK         0.0786 
    103 H103       22.8739   -1.8282   -0.3712 H         1 UNK         0.0786 
    104 H104       24.8730   -3.3129   -0.6001 H         1 UNK         0.2977 
    105 H105       25.2456    1.5445   -4.2587 H         1 UNK         0.3127 
    106 H106       24.8251    4.2482   -4.9542 H         1 UNK         0.0770 
    107 H107       23.0646    1.7960   -5.4932 H         1 UNK         0.0814 
    108 H108       22.5290    3.4697   -5.5496 H         1 UNK         0.0814 
    109 H109       23.0571    2.7714   -4.0260 H         1 UNK         0.0814 
    110 H110       25.1344    1.3604   -7.0704 H         1 UNK         0.2983 
    111 H111       24.7705    2.8259   -9.5309 H         1 UNK         0.0947 
    112 H112       25.4432    0.6467  -10.5587 H         1 UNK         0.0806 
    113 H113       24.2350    0.4058   -9.3058 H         1 UNK         0.0806 
    114 H114       25.9274    0.0388   -8.9805 H         1 UNK         0.0806 
    115 H115       27.5336    2.2368   -7.5024 H         1 UNK         0.3000 
    116 H116       29.7163    2.5557   -7.5755 H         1 UNK         0.0850 
    117 H117       30.7404    4.3068   -8.9871 H         1 UNK         0.0810 
    118 H118       29.2514    4.9115   -8.2764 H         1 UNK         0.0810 
    119 H119       29.2915    4.4269   -9.9713 H         1 UNK         0.0810 
    120 H120       29.0034    0.2492   -8.3248 H         1 UNK         0.3040 
    121 H121       29.4277   -0.5090  -11.0636 H         1 UNK         0.0766 
    122 H122       27.7497   -1.6025   -9.6095 H         1 UNK         0.0812 
    123 H123       29.0306   -2.2251   -8.5683 H         1 UNK         0.0812 
    124 H124       28.8949   -2.7809  -10.2272 H         1 UNK         0.0812 
    125 H125       31.6330    0.5132  -11.0359 H         1 UNK         0.3205 
    126 H126       33.7684    0.3285  -11.5922 H         1 UNK         0.0754 
    127 H127       34.8461   -1.8856  -12.0436 H         1 UNK         0.0769 
    128 H128       33.2948   -1.7148  -12.8440 H         1 UNK         0.0769 
    129 H129       33.4335   -2.7166  -11.4074 H         1 UNK         0.0769 
    130 H130       34.1159   -2.4716   -9.4980 H         1 UNK         0.2981 
    131 H131       35.5564   -2.9084   -7.8929 H         1 UNK         0.0541 
    132 H132       36.3653   -0.6054   -5.7670 H         1 UNK         0.3459 
    133 H133       37.8826   -0.1338   -6.4929 H         1 UNK         0.3459 
    134 H134       34.8949   -2.0594   -5.6559 H         1 UNK         0.0612 
    135 H135       33.5811   -2.5954   -6.6385 H         1 UNK         0.0612 
    136 H136       31.1288    0.1140   -6.5920 H         1 UNK         0.0624 
    137 H137       31.5610   -1.5334   -6.9537 H         1 UNK         0.0624 
@<TRIPOS>BOND
     1    1    2 1    
     2    1   72 1    
     3    1   73 1    
     4    1   74 1    
     5    2    3 2    
     6    2    4 am   BACKBONE|DICT|INTERRES
     7    4    5 1    
     8    4   75 1    
     9    5    6 1    
    10    5   35 1    
    11    5   76 1    
    12    6    7 1    
    13    6   77 1    
    14    6   78 1    
    15    7    8 1    
    16    8    9 1    
    17    8   79 1    
    18    8   80 1    
    19    9   10 ar   
    20    9   14 ar   
    21   10   11 ar   
    22   10   81 1    
    23   11   12 ar   
    24   11   71 1    
    25   12   13 ar   
    26   12   82 1    
    27   13   14 ar   
    28   13   15 1    
    29   14   83 1    
    30   15   16 1    
    31   15   84 1    
    32   15   85 1    
    33   16   17 1    
    34   17   18 1    
    35   17   86 1    
    36   17   87 1    
    37   18   19 1    
    38   18   37 1    
    39   18   88 1    
    40   19   20 am   BACKBONE|DICT|INTERRES
    41   19   89 1    
    42   20   21 2    
    43   20   22 1    
    44   22   23 1    
    45   22   24 1    
    46   22   90 1    
    47   23   91 1    
    48   23   92 1    
    49   23   93 1    
    50   24   25 am   BACKBONE|DICT|INTERRES
    51   24   94 1    
    52   25   26 2    
    53   25   27 1    
    54   27   28 1    
    55   27   29 1    
    56   27   95 1    
    57   28   96 1    
    58   28   97 1    
    59   28   98 1    
    60   29   30 am   BACKBONE|DICT|INTERRES
    61   29   99 1    
    62   30   31 2    
    63   30   32 1    
    64   32   33 1    
    65   32   34 1    
    66   32  100 1    
    67   33  101 1    
    68   33  102 1    
    69   33  103 1    
    70   34   35 am   BACKBONE|DICT|INTERRES
    71   34  104 1    
    72   35   36 2    
    73   37   38 2    
    74   37   39 am   BACKBONE|DICT|INTERRES
    75   39   40 1    
    76   39  105 1    
    77   40   41 1    
    78   40   42 1    
    79   40  106 1    
    80   41  107 1    
    81   41  108 1    
    82   41  109 1    
    83   42   43 2    
    84   42   44 am   BACKBONE|DICT|INTERRES
    85   44   45 1    
    86   44  110 1    
    87   45   46 1    
    88   45   47 1    
    89   45  111 1    
    90   46  112 1    
    91   46  113 1    
    92   46  114 1    
    93   47   48 2    
    94   47   49 am   BACKBONE|DICT|INTERRES
    95   49   50 1    
    96   49  115 1    
    97   50   51 1    
    98   50   52 1    
    99   50  116 1    
   100   51  117 1    
   101   51  118 1    
   102   51  119 1    
   103   52   53 2    
   104   52   54 am   BACKBONE|DICT|INTERRES
   105   54   55 1    
   106   54  120 1    
   107   55   56 1    
   108   55   57 1    
   109   55  121 1    
   110   56  122 1    
   111   56  123 1    
   112   56  124 1    
   113   57   58 2    
   114   57   59 am   BACKBONE|DICT|INTERRES
   115   59   60 1    
   116   59  125 1    
   117   60   61 1    
   118   60   62 1    
   119   60  126 1    
   120   61  127 1    
   121   61  128 1    
   122   61  129 1    
   123   62   63 2    
   124   62   64 am   BACKBONE|DICT|INTERRES
   125   64   65 1    
   126   64  130 1    
   127   65   66 1    
   128   65   69 1    
   129   65  131 1    
   130   66   67 am   BACKBONE|DICT|INTERRES
   131   66   68 2    
   132   67  132 1    
   133   67  133 1    
   134   69   70 1    
   135   69  134 1    
   136   69  135 1    
   137   70   71 1    
   138   71  136 1    
   139   71  137 1    
@<TRIPOS>SUBSTRUCTURE
     1 UNK         1 GROUP             0       ****    0 ROOT    
