@<TRIPOS>MOLECULE
3R137
137   139    1
SMALL
USER_CHARGES


@<TRIPOS>ATOM
      1 CA         25.5693   -9.0347   -3.9928 C.3       0 UNK        -0.2020 
      2 C          25.9712   -7.6428   -3.5293 C.2       0 UNK         0.4855 
      3 O          25.9254   -7.3575   -2.3316 O.2       0 UNK        -0.5197 
      4 N          26.3632   -6.7687   -4.4651 N.am      1 UNK        -0.4892 
      5 CA         26.7470   -5.3775   -4.2095 C.3       1 UNK         0.0835 
      6 C6         27.7569   -4.8786   -5.2749 C.3       12 UNK        -0.0855 
      7 S7         28.4746   -3.2508   -4.8815 S.3       12 UNK        -0.2931 
      8 C8         29.7694   -3.6727   -3.6732 C.3       12 UNK         0.0378 
      9 C9         30.3771   -2.3943   -3.1218 C.ar      12 UNK        -0.0802 
     10 C10        31.5807   -1.9031   -3.6337 C.ar      12 UNK        -0.0944 
     11 C11        32.0732   -0.6620   -3.2210 C.ar      12 UNK        -0.0787 
     12 C12        31.3562    0.0859   -2.2824 C.ar      12 UNK        -0.0862 
     13 C13        30.1522   -0.3995   -1.7597 C.ar      12 UNK        -0.0733 
     14 C14        29.6872   -1.6570   -2.1556 C.ar      12 UNK        -0.0832 
     15 C15        29.3110    0.4658   -0.8298 C.3       12 UNK         0.0240 
     16 S16        27.7121    0.9375   -1.5836 S.3       12 UNK        -0.2522 
     17 C17        28.2293    1.6224   -3.1961 C.3       12 UNK        -0.0967 
     18 CA         27.9986    0.6008   -4.3488 C.3       5 UNK         0.0660 
     19 N          26.5765    0.3683   -4.6229 N.am      5 UNK        -0.4015 
     20 C          25.7463    1.1807   -5.2945 C.2       4 UNK         0.4946 
     21 O          26.0809    2.2561   -5.7956 O.2       4 UNK        -0.5353 
     22 CA         24.2865    0.7167   -5.4287 C.3       4 UNK         0.0277 
     23 CB         24.1401   -0.2695   -6.5985 C.3       4 UNK        -0.1981 
     24 N          23.7592    0.0987   -4.2103 N.am      4 UNK        -0.4209 
     25 C          23.6027    0.7192   -3.0313 C.2       3 UNK         0.4942 
     26 O          23.8526    1.9118   -2.8513 O.2       3 UNK        -0.5208 
     27 CA         23.0522   -0.1099   -1.8532 C.3       3 UNK         0.0250 
     28 CB         21.6669    0.4076   -1.4281 C.3       3 UNK        -0.1990 
     29 N          22.9554   -1.5510   -2.1140 N.am      3 UNK        -0.4232 
     30 C          23.9949   -2.3919   -2.1974 C.2       2 UNK         0.4993 
     31 O          25.1677   -2.0308   -2.0757 O.2       2 UNK        -0.5286 
     32 CA         23.6599   -3.8807   -2.4289 C.3       2 UNK         0.0209 
     33 CB         22.4379   -4.1014   -3.3512 C.3       2 UNK        -0.1931 
     34 N          24.8181   -4.6465   -2.9044 N.am      2 UNK        -0.4546 
     35 C          25.4836   -4.4992   -4.0595 C.2       1 UNK         0.5154 
     36 O          25.1244   -3.7547   -4.9749 O.2       1 UNK        -0.5181 
     37 C          28.7708    0.9150   -5.6469 C.2       5 UNK         0.5014 
     38 O          28.8456    0.0530   -6.5255 O.2       5 UNK        -0.5248 
     39 N          29.2816    2.1473   -5.7791 N.am      6 UNK        -0.4434 
     40 CA         30.0074    2.6470   -6.9476 C.3       6 UNK         0.0363 
     41 CB         30.4618    4.0898   -6.6822 C.3       6 UNK        -0.1936 
     42 C          29.2274    2.5639   -8.2705 C.2       6 UNK         0.5081 
     43 O          29.8581    2.4127   -9.3148 O.2       6 UNK        -0.5248 
     44 N          27.8881    2.6157   -8.2187 N.am      7 UNK        -0.4718 
     45 CA         27.0265    2.4549   -9.3941 C.3       7 UNK         0.0273 
     46 CB         25.6092    2.9522   -9.0671 C.3       7 UNK        -0.1935 
     47 C          26.9890    1.0128   -9.9364 C.2       7 UNK         0.5018 
     48 O          26.6333    0.8302  -11.1014 O.2       7 UNK        -0.5186 
     49 N          27.3511    0.0261   -9.1038 N.am      8 UNK        -0.4240 
     50 CA         27.4424   -1.3848   -9.4788 C.3       8 UNK         0.0235 
     51 CB         26.7462   -2.2489   -8.4133 C.3       8 UNK        -0.2000 
     52 C          28.9040   -1.8170   -9.6554 C.2       8 UNK         0.4941 
     53 O          29.2328   -2.4335  -10.6693 O.2       8 UNK        -0.5273 
     54 N          29.7505   -1.5057   -8.6654 N.am      9 UNK        -0.4262 
     55 CA         31.1329   -1.9812   -8.5831 C.3       9 UNK         0.0264 
     56 CB         31.5396   -2.0432   -7.1039 C.3       9 UNK        -0.1955 
     57 C          32.1483   -1.1472   -9.3810 C.2       9 UNK         0.5031 
     58 O          33.2646   -1.6267   -9.5838 O.2       9 UNK        -0.5390 
     59 N          31.7800    0.0790   -9.7870 N.am      10 UNK        -0.4204 
     60 CA         32.6245    1.0691  -10.4771 C.3       10 UNK         0.0237 
     61 CB         33.0712    0.5563  -11.8638 C.3       10 UNK        -0.1985 
     62 C          33.8041    1.5916   -9.6265 C.2       10 UNK         0.4970 
     63 O          34.7638    2.1265  -10.1836 O.2       10 UNK        -0.4914 
     64 N          33.7092    1.4498   -8.2977 N.am      11 UNK        -0.4285 
     65 CA         34.7044    1.8981   -7.3104 C.3       11 UNK         0.1007 
     66 C          34.7097    3.4283   -7.0160 C.2       11 UNK         0.5703 
     67 N          33.8378    4.2283   -7.6176 N.am      11 UNK        -0.7361 
     68 O          35.5373    3.9028   -6.2414 O.2       11 UNK        -0.4986 
     69 C69        34.6475    1.0365   -6.0191 C.3       12 UNK        -0.0947 
     70 S70        33.0084    0.9934   -5.2188 S.3       12 UNK        -0.2240 
     71 C71        33.3594   -0.1171   -3.8216 C.3       12 UNK         0.0194 
     72 H72        25.6657   -9.1498   -5.0723 H         1 UNK         0.0906 
     73 H73        26.1982   -9.7851   -3.5146 H         1 UNK         0.0906 
     74 H74        24.5332   -9.2354   -3.7215 H         1 UNK         0.0906 
     75 H75        26.3486   -7.0457   -5.4371 H         1 UNK         0.3140 
     76 H76        27.2646   -5.3447   -3.2483 H         1 UNK         0.1085 
     77 H77        28.5749   -5.5929   -5.3824 H         1 UNK         0.0836 
     78 H78        27.2821   -4.8162   -6.2559 H         1 UNK         0.0836 
     79 H79        30.5302   -4.2918   -4.1513 H         1 UNK         0.0731 
     80 H80        29.3484   -4.2615   -2.8575 H         1 UNK         0.0731 
     81 H81        32.1173   -2.4703   -4.3809 H         1 UNK         0.1312 
     82 H82        31.7201    1.0610   -1.9884 H         1 UNK         0.1406 
     83 H83        28.7398   -2.0197   -1.7784 H         1 UNK         0.1631 
     84 H84        29.8499    1.3723   -0.5499 H         1 UNK         0.0717 
     85 H85        29.1210   -0.0782    0.0963 H         1 UNK         0.0717 
     86 H86        27.6694    2.5423   -3.3746 H         1 UNK         0.0934 
     87 H87        29.2784    1.9127   -3.1190 H         1 UNK         0.0934 
     88 H88        28.3898   -0.3632   -4.0344 H         1 UNK         0.0739 
     89 H89        26.2038   -0.4960   -4.2552 H         1 UNK         0.3093 
     90 H90        23.6812    1.5996   -5.6449 H         1 UNK         0.0818 
     91 H91        24.5629    0.1387   -7.5171 H         1 UNK         0.0819 
     92 H92        24.6513   -1.2113   -6.3941 H         1 UNK         0.0819 
     93 H93        23.0925   -0.4950   -6.7982 H         1 UNK         0.0819 
     94 H94        23.5252   -0.8819   -4.2621 H         1 UNK         0.3041 
     95 H95        23.7406    0.0355   -1.0177 H         1 UNK         0.0784 
     96 H96        21.7043    1.4688   -1.1775 H         1 UNK         0.0793 
     97 H97        20.9296    0.2872   -2.2229 H         1 UNK         0.0793 
     98 H98        21.3000   -0.1164   -0.5452 H         1 UNK         0.0793 
     99 H99        22.0235   -1.9251   -2.2227 H         1 UNK         0.3024 
    100 H100       23.4145   -4.2891   -1.4471 H         1 UNK         0.1171 
    101 H101       22.2927   -5.1608   -3.5635 H         1 UNK         0.0786 
    102 H102       21.5165   -3.7464   -2.8888 H         1 UNK         0.0786 
    103 H103       22.5471   -3.5859   -4.3061 H         1 UNK         0.0786 
    104 H104       25.1817   -5.3371   -2.2568 H         1 UNK         0.2977 
    105 H105       29.1305    2.8098   -5.0333 H         1 UNK         0.3127 
    106 H106       30.8957    2.0252   -7.0669 H         1 UNK         0.0770 
    107 H107       29.6185    4.7438   -6.4571 H         1 UNK         0.0814 
    108 H108       30.9701    4.5079   -7.5518 H         1 UNK         0.0814 
    109 H109       31.1610    4.1375   -5.8469 H         1 UNK         0.0814 
    110 H110       27.4257    2.6924   -7.3171 H         1 UNK         0.2983 
    111 H111       27.4258    3.0851  -10.1922 H         1 UNK         0.0947 
    112 H112       24.9677    2.9069   -9.9482 H         1 UNK         0.0806 
    113 H113       25.6200    3.9881   -8.7279 H         1 UNK         0.0806 
    114 H114       25.1362    2.3511   -8.2915 H         1 UNK         0.0806 
    115 H115       27.6760    0.2686   -8.1737 H         1 UNK         0.3000 
    116 H116       26.9338   -1.5612  -10.4291 H         1 UNK         0.0850 
    117 H117       26.8965   -3.3117   -8.6078 H         1 UNK         0.0810 
    118 H118       25.6710   -2.0747   -8.4113 H         1 UNK         0.0810 
    119 H119       27.1217   -2.0453   -7.4094 H         1 UNK         0.0810 
    120 H120       29.3976   -0.9975   -7.8538 H         1 UNK         0.3040 
    121 H121       31.1773   -2.9974   -8.9811 H         1 UNK         0.0766 
    122 H122       31.4203   -1.0777   -6.6128 H         1 UNK         0.0812 
    123 H123       32.5810   -2.3466   -6.9870 H         1 UNK         0.0812 
    124 H124       30.9301   -2.7669   -6.5640 H         1 UNK         0.0812 
    125 H125       30.8424    0.3962   -9.5704 H         1 UNK         0.3205 
    126 H126       31.9900    1.9371  -10.6547 H         1 UNK         0.0754 
    127 H127       33.5435    1.3517  -12.4417 H         1 UNK         0.0769 
    128 H128       32.2223    0.1971  -12.4455 H         1 UNK         0.0769 
    129 H129       33.7931   -0.2569  -11.7852 H         1 UNK         0.0769 
    130 H130       32.8905    1.0041   -7.9144 H         1 UNK         0.2981 
    131 H131       35.6846    1.7092   -7.7519 H         1 UNK         0.0541 
    132 H132       33.1777    3.8577   -8.2799 H         1 UNK         0.3459 
    133 H133       33.8641    5.2168   -7.4245 H         1 UNK         0.3459 
    134 H134       35.3887    1.3719   -5.2914 H         1 UNK         0.0612 
    135 H135       34.9218    0.0098   -6.2668 H         1 UNK         0.0612 
    136 H136       33.9897   -0.9414   -4.1589 H         1 UNK         0.0624 
    137 H137       33.9317    0.4224   -3.0656 H         1 UNK         0.0624 
@<TRIPOS>BOND
     1    1    2 1    
     2    1   72 1    
     3    1   73 1    
     4    1   74 1    
     5    2    3 2    
     6    2    4 am   BACKBONE|DICT|INTERRES
     7    4    5 1    
     8    4   75 1    
     9    5    6 1    
    10    5   35 1    
    11    5   76 1    
    12    6    7 1    
    13    6   77 1    
    14    6   78 1    
    15    7    8 1    
    16    8    9 1    
    17    8   79 1    
    18    8   80 1    
    19    9   10 ar   
    20    9   14 ar   
    21   10   11 ar   
    22   10   81 1    
    23   11   12 ar   
    24   11   71 1    
    25   12   13 ar   
    26   12   82 1    
    27   13   14 ar   
    28   13   15 1    
    29   14   83 1    
    30   15   16 1    
    31   15   84 1    
    32   15   85 1    
    33   16   17 1    
    34   17   18 1    
    35   17   86 1    
    36   17   87 1    
    37   18   19 1    
    38   18   37 1    
    39   18   88 1    
    40   19   20 am   BACKBONE|DICT|INTERRES
    41   19   89 1    
    42   20   21 2    
    43   20   22 1    
    44   22   23 1    
    45   22   24 1    
    46   22   90 1    
    47   23   91 1    
    48   23   92 1    
    49   23   93 1    
    50   24   25 am   BACKBONE|DICT|INTERRES
    51   24   94 1    
    52   25   26 2    
    53   25   27 1    
    54   27   28 1    
    55   27   29 1    
    56   27   95 1    
    57   28   96 1    
    58   28   97 1    
    59   28   98 1    
    60   29   30 am   BACKBONE|DICT|INTERRES
    61   29   99 1    
    62   30   31 2    
    63   30   32 1    
    64   32   33 1    
    65   32   34 1    
    66   32  100 1    
    67   33  101 1    
    68   33  102 1    
    69   33  103 1    
    70   34   35 am   BACKBONE|DICT|INTERRES
    71   34  104 1    
    72   35   36 2    
    73   37   38 2    
    74   37   39 am   BACKBONE|DICT|INTERRES
    75   39   40 1    
    76   39  105 1    
    77   40   41 1    
    78   40   42 1    
    79   40  106 1    
    80   41  107 1    
    81   41  108 1    
    82   41  109 1    
    83   42   43 2    
    84   42   44 am   BACKBONE|DICT|INTERRES
    85   44   45 1    
    86   44  110 1    
    87   45   46 1    
    88   45   47 1    
    89   45  111 1    
    90   46  112 1    
    91   46  113 1    
    92   46  114 1    
    93   47   48 2    
    94   47   49 am   BACKBONE|DICT|INTERRES
    95   49   50 1    
    96   49  115 1    
    97   50   51 1    
    98   50   52 1    
    99   50  116 1    
   100   51  117 1    
   101   51  118 1    
   102   51  119 1    
   103   52   53 2    
   104   52   54 am   BACKBONE|DICT|INTERRES
   105   54   55 1    
   106   54  120 1    
   107   55   56 1    
   108   55   57 1    
   109   55  121 1    
   110   56  122 1    
   111   56  123 1    
   112   56  124 1    
   113   57   58 2    
   114   57   59 am   BACKBONE|DICT|INTERRES
   115   59   60 1    
   116   59  125 1    
   117   60   61 1    
   118   60   62 1    
   119   60  126 1    
   120   61  127 1    
   121   61  128 1    
   122   61  129 1    
   123   62   63 2    
   124   62   64 am   BACKBONE|DICT|INTERRES
   125   64   65 1    
   126   64  130 1    
   127   65   66 1    
   128   65   69 1    
   129   65  131 1    
   130   66   67 am   BACKBONE|DICT|INTERRES
   131   66   68 2    
   132   67  132 1    
   133   67  133 1    
   134   69   70 1    
   135   69  134 1    
   136   69  135 1    
   137   70   71 1    
   138   71  136 1    
   139   71  137 1    
@<TRIPOS>SUBSTRUCTURE
     1 UNK         1 GROUP             0       ****    0 ROOT    
