@<TRIPOS>MOLECULE
3R137
137   139    1
SMALL
USER_CHARGES


@<TRIPOS>ATOM
      1 CA         23.8437   -4.7158    0.0063 C.3       0 UNK        -0.2020 
      2 C          25.2003   -4.1652    0.4193 C.2       0 UNK         0.4855 
      3 O          25.3161   -3.5583    1.4840 O.2       0 UNK        -0.5197 
      4 N          26.2280   -4.3725   -0.4154 N.am      1 UNK        -0.4892 
      5 CA         27.5970   -3.8838   -0.1962 C.3       1 UNK         0.0835 
      6 C6         28.6028   -4.6577   -1.0827 C.3       12 UNK        -0.0855 
      7 S7         30.3101   -4.6027   -0.4340 S.3       12 UNK        -0.2931 
      8 C8         31.2751   -5.2378   -1.8431 C.3       12 UNK         0.0378 
      9 C9         31.0921   -4.3832   -3.0885 C.ar      12 UNK        -0.0802 
     10 C10        31.7154   -3.1347   -3.1891 C.ar      12 UNK        -0.0944 
     11 C11        31.5236   -2.3315   -4.3183 C.ar      12 UNK        -0.0787 
     12 C12        30.6769   -2.7876   -5.3362 C.ar      12 UNK        -0.0862 
     13 C13        30.0723   -4.0455   -5.2631 C.ar      12 UNK        -0.0733 
     14 C14        30.2903   -4.8421   -4.1378 C.ar      12 UNK        -0.0832 
     15 C15        29.2279   -4.5628   -6.4213 C.3       12 UNK         0.0240 
     16 S16        27.4954   -4.9081   -5.9661 S.3       12 UNK        -0.2522 
     17 C17        26.8665   -3.2837   -5.4291 C.3       12 UNK        -0.0967 
     18 CA         26.5878   -2.3101   -6.6104 C.3       5 UNK         0.0660 
     19 N          25.3216   -1.5870   -6.4502 N.am      5 UNK        -0.4015 
     20 C          24.7608   -0.8225   -7.4007 C.2       4 UNK         0.4946 
     21 O          25.2283   -0.6770   -8.5290 O.2       4 UNK        -0.5353 
     22 CA         23.4825   -0.0529   -7.0305 C.3       4 UNK         0.0277 
     23 CB         22.2379   -0.9004   -7.3385 C.3       4 UNK        -0.1981 
     24 N          23.4354    0.3968   -5.6379 N.am      4 UNK        -0.4209 
     25 C          24.3357    1.1932   -5.0445 C.2       3 UNK         0.4942 
     26 O          25.3413    1.6287   -5.6065 O.2       3 UNK        -0.5208 
     27 CA         24.0890    1.5590   -3.5699 C.3       3 UNK         0.0250 
     28 CB         22.7380    1.0563   -3.0088 C.3       3 UNK        -0.1990 
     29 N          25.1817    1.1278   -2.6912 N.am      3 UNK        -0.4232 
     30 C          25.6774   -0.1110   -2.5529 C.2       2 UNK         0.4993 
     31 O          25.3703   -1.0674   -3.2735 O.2       2 UNK        -0.5286 
     32 CA         26.6658   -0.3187   -1.3929 C.3       2 UNK         0.0209 
     33 CB         26.2014    0.3972   -0.1010 C.3       2 UNK        -0.1931 
     34 N          26.8014   -1.7540   -1.1545 N.am      2 UNK        -0.4546 
     35 C          27.7164   -2.3502   -0.3792 C.2       1 UNK         0.5154 
     36 O          28.6099   -1.7347    0.2048 O.2       1 UNK        -0.5181 
     37 C          27.7505   -1.3199   -6.8011 C.2       5 UNK         0.5014 
     38 O          28.4916   -1.4102   -7.7818 O.2       5 UNK        -0.5248 
     39 N          27.8560   -0.3727   -5.8598 N.am      6 UNK        -0.4434 
     40 CA         28.8663    0.6822   -5.8338 C.3       6 UNK         0.0363 
     41 CB         28.7571    1.4439   -4.5040 C.3       6 UNK        -0.1936 
     42 C          28.7686    1.6320   -7.0366 C.2       6 UNK         0.5081 
     43 O          29.8035    2.0451   -7.5596 O.2       6 UNK        -0.5248 
     44 N          27.5380    1.9333   -7.4711 N.am      7 UNK        -0.4718 
     45 CA         27.2524    2.7126   -8.6746 C.3       7 UNK         0.0273 
     46 CB         25.7610    3.0818   -8.7104 C.3       7 UNK        -0.1935 
     47 C          27.6688    1.9844   -9.9635 C.2       7 UNK         0.5018 
     48 O          28.3272    2.5942  -10.8061 O.2       7 UNK        -0.5186 
     49 N          27.2939    0.7020  -10.0932 N.am      8 UNK        -0.4240 
     50 CA         27.5904   -0.1312  -11.2631 C.3       8 UNK         0.0235 
     51 CB         26.7887   -1.4409  -11.1936 C.3       8 UNK        -0.2000 
     52 C          29.0875   -0.4278  -11.4329 C.2       8 UNK         0.4941 
     53 O          29.6012   -0.3186  -12.5470 O.2       8 UNK        -0.5273 
     54 N          29.7608   -0.7900  -10.3327 N.am      9 UNK        -0.4262 
     55 CA         31.1961   -1.0888  -10.3144 C.3       9 UNK         0.0264 
     56 CB         31.4892   -2.0165   -9.1292 C.3       9 UNK        -0.1955 
     57 C          32.0872    0.1676  -10.2615 C.2       9 UNK         0.5031 
     58 O          33.2949    0.0472  -10.4693 O.2       9 UNK        -0.5390 
     59 N          31.4899    1.3342   -9.9757 N.am      10 UNK        -0.4204 
     60 CA         32.0943    2.6695   -9.8685 C.3       10 UNK         0.0237 
     61 CB         32.7796    3.0874  -11.1871 C.3       10 UNK        -0.1985 
     62 C          33.0045    2.8760   -8.6396 C.2       10 UNK         0.4970 
     63 O          33.6465    3.9235   -8.5433 O.2       10 UNK        -0.4914 
     64 N          33.0241    1.9150   -7.7078 N.am      11 UNK        -0.4285 
     65 CA         33.6745    2.0204   -6.3910 C.3       11 UNK         0.1007 
     66 C          32.8752    2.8466   -5.3429 C.2       11 UNK         0.5703 
     67 N          31.6441    3.2605   -5.6142 N.am      11 UNK        -0.7361 
     68 O          33.3964    3.1450   -4.2709 O.2       11 UNK        -0.4986 
     69 C69        34.1426    0.6424   -5.8406 C.3       12 UNK        -0.0947 
     70 S70        32.9687   -0.7329   -6.0840 S.3       12 UNK        -0.2240 
     71 C71        32.2417   -0.9856   -4.4305 C.3       12 UNK         0.0194 
     72 H72        23.1207   -3.9050   -0.0794 H         1 UNK         0.0906 
     73 H73        23.8865   -5.2340   -0.9515 H         1 UNK         0.0906 
     74 H74        23.4803   -5.4186    0.7556 H         1 UNK         0.0906 
     75 H75        26.0738   -4.8870   -1.2714 H         1 UNK         0.3140 
     76 H76        27.8418   -4.0905    0.8486 H         1 UNK         0.1085 
     77 H77        28.3236   -5.7112   -1.1397 H         1 UNK         0.0836 
     78 H78        28.5655   -4.2807   -2.1053 H         1 UNK         0.0836 
     79 H79        32.3310   -5.2598   -1.5695 H         1 UNK         0.0731 
     80 H80        30.9882   -6.2729   -2.0359 H         1 UNK         0.0731 
     81 H81        32.3469   -2.7896   -2.3817 H         1 UNK         0.1312 
     82 H82        30.5120   -2.1714   -6.2055 H         1 UNK         0.1406 
     83 H83        29.8199   -5.8143   -4.0750 H         1 UNK         0.1631 
     84 H84        29.6754   -5.4876   -6.7877 H         1 UNK         0.0717 
     85 H85        29.2494   -3.8725   -7.2645 H         1 UNK         0.0717 
     86 H86        25.9404   -3.4918   -4.8907 H         1 UNK         0.0934 
     87 H87        27.5339   -2.8632   -4.6731 H         1 UNK         0.0934 
     88 H88        26.4971   -2.8862   -7.5341 H         1 UNK         0.0739 
     89 H89        24.9017   -1.6021   -5.5294 H         1 UNK         0.3093 
     90 H90        23.4482    0.8394   -7.6583 H         1 UNK         0.0818 
     91 H91        21.3208   -0.3318   -7.1829 H         1 UNK         0.0819 
     92 H92        22.2387   -1.2298   -8.3787 H         1 UNK         0.0819 
     93 H93        22.1910   -1.7936   -6.7141 H         1 UNK         0.0819 
     94 H94        22.6516    0.0793   -5.0863 H         1 UNK         0.3041 
     95 H95        24.0748    2.6494   -3.5337 H         1 UNK         0.0784 
     96 H96        21.8975    1.4298   -3.5956 H         1 UNK         0.0793 
     97 H97        22.6789   -0.0328   -2.9874 H         1 UNK         0.0793 
     98 H98        22.5875    1.4086   -1.9881 H         1 UNK         0.0793 
     99 H99        25.5417    1.8462   -2.0790 H         1 UNK         0.3024 
    100 H100       27.6358    0.0758   -1.7008 H         1 UNK         0.1171 
    101 H101       25.2042    0.0720    0.1993 H         1 UNK         0.0786 
    102 H102       26.1731    1.4800   -0.2246 H         1 UNK         0.0786 
    103 H103       26.8736    0.2050    0.7348 H         1 UNK         0.0786 
    104 H104       26.1209   -2.3201   -1.6462 H         1 UNK         0.2977 
    105 H105       27.1539   -0.3440   -5.1342 H         1 UNK         0.3127 
    106 H106       29.8469    0.2066   -5.8811 H         1 UNK         0.0770 
    107 H107       28.9516    0.7855   -3.6579 H         1 UNK         0.0814 
    108 H108       27.7697    1.8869   -4.3707 H         1 UNK         0.0814 
    109 H109       29.4815    2.2542   -4.4486 H         1 UNK         0.0814 
    110 H110       26.7409    1.6144   -6.9258 H         1 UNK         0.2983 
    111 H111       27.8298    3.6380   -8.6158 H         1 UNK         0.0947 
    112 H112       25.5342    3.7049   -9.5765 H         1 UNK         0.0806 
    113 H113       25.4698    3.6416   -7.8213 H         1 UNK         0.0806 
    114 H114       25.1274    2.1969   -8.7699 H         1 UNK         0.0806 
    115 H115       26.7268    0.2735   -9.3657 H         1 UNK         0.3000 
    116 H116       27.2627    0.4165  -12.1494 H         1 UNK         0.0850 
    117 H117       27.0017   -2.0782  -12.0529 H         1 UNK         0.0810 
    118 H118       25.7159   -1.2477  -11.1925 H         1 UNK         0.0810 
    119 H119       27.0257   -2.0117  -10.2945 H         1 UNK         0.0810 
    120 H120       29.2555   -0.8983   -9.4542 H         1 UNK         0.3040 
    121 H121       31.4551   -1.6258  -11.2295 H         1 UNK         0.0766 
    122 H122       32.5499   -2.2634   -9.0672 H         1 UNK         0.0812 
    123 H123       30.9382   -2.9536   -9.2092 H         1 UNK         0.0812 
    124 H124       31.2056   -1.5409   -8.1937 H         1 UNK         0.0812 
    125 H125       30.4989    1.3074   -9.7716 H         1 UNK         0.3205 
    126 H126       31.2521    3.3466   -9.7169 H         1 UNK         0.0754 
    127 H127       33.0687    4.1388  -11.1623 H         1 UNK         0.0769 
    128 H128       32.1115    2.9576  -12.0387 H         1 UNK         0.0769 
    129 H129       33.6840    2.5090  -11.3770 H         1 UNK         0.0769 
    130 H130       32.4513    1.0963   -7.8473 H         1 UNK         0.2981 
    131 H131       34.5868    2.6014   -6.5385 H         1 UNK         0.0541 
    132 H132       31.1766    2.9760   -6.4678 H         1 UNK         0.3459 
    133 H133       31.1591    3.8245   -4.9361 H         1 UNK         0.3459 
    134 H134       34.4334    0.7030   -4.7904 H         1 UNK         0.0612 
    135 H135       35.0536    0.3554   -6.3675 H         1 UNK         0.0612 
    136 H136       33.0376   -0.9240   -3.6870 H         1 UNK         0.0624 
    137 H137       31.5435   -0.1775   -4.2112 H         1 UNK         0.0624 
@<TRIPOS>BOND
     1    1    2 1    
     2    1   72 1    
     3    1   73 1    
     4    1   74 1    
     5    2    3 2    
     6    2    4 am   BACKBONE|DICT|INTERRES
     7    4    5 1    
     8    4   75 1    
     9    5    6 1    
    10    5   35 1    
    11    5   76 1    
    12    6    7 1    
    13    6   77 1    
    14    6   78 1    
    15    7    8 1    
    16    8    9 1    
    17    8   79 1    
    18    8   80 1    
    19    9   10 ar   
    20    9   14 ar   
    21   10   11 ar   
    22   10   81 1    
    23   11   12 ar   
    24   11   71 1    
    25   12   13 ar   
    26   12   82 1    
    27   13   14 ar   
    28   13   15 1    
    29   14   83 1    
    30   15   16 1    
    31   15   84 1    
    32   15   85 1    
    33   16   17 1    
    34   17   18 1    
    35   17   86 1    
    36   17   87 1    
    37   18   19 1    
    38   18   37 1    
    39   18   88 1    
    40   19   20 am   BACKBONE|DICT|INTERRES
    41   19   89 1    
    42   20   21 2    
    43   20   22 1    
    44   22   23 1    
    45   22   24 1    
    46   22   90 1    
    47   23   91 1    
    48   23   92 1    
    49   23   93 1    
    50   24   25 am   BACKBONE|DICT|INTERRES
    51   24   94 1    
    52   25   26 2    
    53   25   27 1    
    54   27   28 1    
    55   27   29 1    
    56   27   95 1    
    57   28   96 1    
    58   28   97 1    
    59   28   98 1    
    60   29   30 am   BACKBONE|DICT|INTERRES
    61   29   99 1    
    62   30   31 2    
    63   30   32 1    
    64   32   33 1    
    65   32   34 1    
    66   32  100 1    
    67   33  101 1    
    68   33  102 1    
    69   33  103 1    
    70   34   35 am   BACKBONE|DICT|INTERRES
    71   34  104 1    
    72   35   36 2    
    73   37   38 2    
    74   37   39 am   BACKBONE|DICT|INTERRES
    75   39   40 1    
    76   39  105 1    
    77   40   41 1    
    78   40   42 1    
    79   40  106 1    
    80   41  107 1    
    81   41  108 1    
    82   41  109 1    
    83   42   43 2    
    84   42   44 am   BACKBONE|DICT|INTERRES
    85   44   45 1    
    86   44  110 1    
    87   45   46 1    
    88   45   47 1    
    89   45  111 1    
    90   46  112 1    
    91   46  113 1    
    92   46  114 1    
    93   47   48 2    
    94   47   49 am   BACKBONE|DICT|INTERRES
    95   49   50 1    
    96   49  115 1    
    97   50   51 1    
    98   50   52 1    
    99   50  116 1    
   100   51  117 1    
   101   51  118 1    
   102   51  119 1    
   103   52   53 2    
   104   52   54 am   BACKBONE|DICT|INTERRES
   105   54   55 1    
   106   54  120 1    
   107   55   56 1    
   108   55   57 1    
   109   55  121 1    
   110   56  122 1    
   111   56  123 1    
   112   56  124 1    
   113   57   58 2    
   114   57   59 am   BACKBONE|DICT|INTERRES
   115   59   60 1    
   116   59  125 1    
   117   60   61 1    
   118   60   62 1    
   119   60  126 1    
   120   61  127 1    
   121   61  128 1    
   122   61  129 1    
   123   62   63 2    
   124   62   64 am   BACKBONE|DICT|INTERRES
   125   64   65 1    
   126   64  130 1    
   127   65   66 1    
   128   65   69 1    
   129   65  131 1    
   130   66   67 am   BACKBONE|DICT|INTERRES
   131   66   68 2    
   132   67  132 1    
   133   67  133 1    
   134   69   70 1    
   135   69  134 1    
   136   69  135 1    
   137   70   71 1    
   138   71  136 1    
   139   71  137 1    
@<TRIPOS>SUBSTRUCTURE
     1 UNK         1 GROUP             0       ****    0 ROOT    
