@<TRIPOS>MOLECULE
3R137
137   139    1
SMALL
USER_CHARGES


@<TRIPOS>ATOM
      1 CA         28.3875   -7.5619   -5.8250 C.3       0 UNK        -0.2020 
      2 C          28.0914   -6.9381   -4.4691 C.2       0 UNK         0.4855 
      3 O          27.4298   -7.5625   -3.6389 O.2       0 UNK        -0.5197 
      4 N          28.5837   -5.7146   -4.2385 N.am      1 UNK        -0.4892 
      5 CA         28.3239   -4.9209   -3.0315 C.3       1 UNK         0.0835 
      6 C6         29.4228   -3.8440   -2.8222 C.3       12 UNK        -0.0855 
      7 S7         29.8087   -3.6125   -1.0575 S.3       12 UNK        -0.2931 
      8 C8         31.5176   -2.9781   -1.1464 C.3       12 UNK         0.0378 
      9 C9         31.5885   -1.5369   -1.6394 C.ar      12 UNK        -0.0802 
     10 C10        32.4806   -1.1767   -2.6552 C.ar      12 UNK        -0.0944 
     11 C11        32.5769    0.1541   -3.0798 C.ar      12 UNK        -0.0787 
     12 C12        31.7679    1.1253   -2.4826 C.ar      12 UNK        -0.0862 
     13 C13        30.8739    0.7778   -1.4661 C.ar      12 UNK        -0.0733 
     14 C14        30.7953   -0.5513   -1.0452 C.ar      12 UNK        -0.0832 
     15 C15        30.0021    1.8346   -0.8034 C.3       12 UNK         0.0240 
     16 S16        28.8652    2.6436   -1.9717 S.3       12 UNK        -0.2522 
     17 C17        27.9359    1.2376   -2.6810 C.3       12 UNK        -0.0967 
     18 CA         28.0758    1.1588   -4.2238 C.3       5 UNK         0.0660 
     19 N          27.5806   -0.1115   -4.7602 N.am      5 UNK        -0.4015 
     20 C          27.8411   -0.5649   -5.9986 C.2       4 UNK         0.4946 
     21 O          28.6816   -0.0648   -6.7471 O.2       4 UNK        -0.5353 
     22 CA         27.0236   -1.7654   -6.5193 C.3       4 UNK         0.0277 
     23 CB         27.8701   -3.0444   -6.5149 C.3       4 UNK        -0.1981 
     24 N          25.7817   -1.9969   -5.7791 N.am      4 UNK        -0.4209 
     25 C          24.7368   -1.1551   -5.7843 C.2       3 UNK         0.4942 
     26 O          24.6914   -0.1449   -6.4856 O.2       3 UNK        -0.5208 
     27 CA         23.5784   -1.4355   -4.8076 C.3       3 UNK         0.0250 
     28 CB         22.4028   -2.0911   -5.5483 C.3       3 UNK        -0.1990 
     29 N          23.9426   -2.2610   -3.6503 N.am      3 UNK        -0.4232 
     30 C          24.9015   -1.9805   -2.7551 C.2       2 UNK         0.4993 
     31 O          25.5881   -0.9582   -2.7921 O.2       2 UNK        -0.5286 
     32 CA         25.2040   -3.0479   -1.6846 C.3       2 UNK         0.0209 
     33 CB         24.0890   -4.1061   -1.5207 C.3       2 UNK        -0.1931 
     34 N          26.4963   -3.7091   -1.9216 N.am      2 UNK        -0.4546 
     35 C          26.9051   -4.3052   -3.0525 C.2       1 UNK         0.5154 
     36 O          26.2248   -4.3509   -4.0825 O.2       1 UNK        -0.5181 
     37 C          27.3523    2.3365   -4.9083 C.2       5 UNK         0.5014 
     38 O          28.0103    3.2526   -5.4007 O.2       5 UNK        -0.5248 
     39 N          26.0112    2.2778   -4.9470 N.am      6 UNK        -0.4434 
     40 CA         25.1411    3.2974   -5.5436 C.3       6 UNK         0.0363 
     41 CB         23.6739    2.9855   -5.2074 C.3       6 UNK        -0.1936 
     42 C          25.3336    3.4470   -7.0623 C.2       6 UNK         0.5081 
     43 O          25.2397    4.5612   -7.5774 O.2       6 UNK        -0.5248 
     44 N          25.6359    2.3331   -7.7432 N.am      7 UNK        -0.4718 
     45 CA         26.0178    2.2932   -9.1577 C.3       7 UNK         0.0273 
     46 CB         26.0210    0.8320   -9.6321 C.3       7 UNK        -0.1935 
     47 C          27.3819    2.9485   -9.4514 C.2       7 UNK         0.5018 
     48 O          27.6219    3.3284  -10.5987 O.2       7 UNK        -0.5186 
     49 N          28.2430    3.0617   -8.4273 N.am      8 UNK        -0.4240 
     50 CA         29.5990    3.6249   -8.4076 C.3       8 UNK         0.0235 
     51 CB         29.5980    5.1242   -8.7661 C.3       8 UNK        -0.2000 
     52 C          30.6095    2.8364   -9.2540 C.2       8 UNK         0.4941 
     53 O          31.5788    2.3066   -8.7109 O.2       8 UNK        -0.5273 
     54 N          30.3612    2.7379  -10.5637 N.am      9 UNK        -0.4262 
     55 CA         31.1665    1.9954  -11.5338 C.3       9 UNK         0.0264 
     56 CB         30.9574    2.6163  -12.9279 C.3       9 UNK        -0.1955 
     57 C          30.8408    0.4896  -11.4952 C.2       9 UNK         0.5031 
     58 O          30.4960   -0.0931  -12.5258 O.2       9 UNK        -0.5390 
     59 N          30.9377   -0.1103  -10.3039 N.am      10 UNK        -0.4204 
     60 CA         30.6635   -1.5200  -10.0513 C.3       10 UNK         0.0237 
     61 CB         29.1500   -1.7669   -9.8969 C.3       10 UNK        -0.1985 
     62 C          31.4889   -1.9936   -8.8514 C.2       10 UNK         0.4970 
     63 O          32.5060   -2.6540   -9.0627 O.2       10 UNK        -0.4914 
     64 N          31.0493   -1.6590   -7.6278 N.am      11 UNK        -0.4285 
     65 CA         31.6817   -2.0429   -6.3476 C.3       11 UNK         0.1007 
     66 C          31.7289   -3.5753   -6.0449 C.2       11 UNK         0.5703 
     67 N          31.0573   -4.4359   -6.8011 N.am      11 UNK        -0.7361 
     68 O          32.3546   -3.9962   -5.0757 O.2       11 UNK        -0.4986 
     69 C69        33.0657   -1.3596   -6.1454 C.3       12 UNK        -0.0947 
     70 S70        32.9047    0.4285   -5.8332 S.3       12 UNK        -0.2240 
     71 C71        33.5827    0.5629   -4.1481 C.3       12 UNK         0.0194 
     72 H72        27.4575   -7.8441   -6.3177 H         1 UNK         0.0906 
     73 H73        28.9220   -6.8768   -6.4827 H         1 UNK         0.0906 
     74 H74        28.9939   -8.4588   -5.7016 H         1 UNK         0.0906 
     75 H75        29.1036   -5.2493   -4.9674 H         1 UNK         0.3140 
     76 H76        28.3496   -5.6176   -2.1899 H         1 UNK         0.1085 
     77 H77        29.1619   -2.8820   -3.2690 H         1 UNK         0.0836 
     78 H78        30.3466   -4.1561   -3.3102 H         1 UNK         0.0836 
     79 H79        32.1169   -3.6388   -1.7752 H         1 UNK         0.0731 
     80 H80        31.9575   -3.0230   -0.1493 H         1 UNK         0.0731 
     81 H81        33.1127   -1.9314   -3.1016 H         1 UNK         0.1312 
     82 H82        31.8360    2.1558   -2.8041 H         1 UNK         0.1406 
     83 H83        30.1149   -0.8239   -0.2497 H         1 UNK         0.1631 
     84 H84        30.6435    2.5934   -0.3531 H         1 UNK         0.0717 
     85 H85        29.4171    1.4052    0.0115 H         1 UNK         0.0717 
     86 H86        28.2832    0.3066   -2.2317 H         1 UNK         0.0934 
     87 H87        26.8908    1.3299   -2.3800 H         1 UNK         0.0934 
     88 H88        29.1383    1.2255   -4.4713 H         1 UNK         0.0739 
     89 H89        26.8827   -0.5857   -4.1935 H         1 UNK         0.3093 
     90 H90        26.7462   -1.5521   -7.5529 H         1 UNK         0.0818 
     91 H91        28.6671   -2.9802   -7.2511 H         1 UNK         0.0819 
     92 H92        27.2754   -3.9238   -6.7633 H         1 UNK         0.0819 
     93 H93        28.3355   -3.2114   -5.5458 H         1 UNK         0.0819 
     94 H94        25.7554   -2.8163   -5.1761 H         1 UNK         0.3041 
     95 H95        23.2450   -0.4692   -4.4237 H         1 UNK         0.0784 
     96 H96        22.0911   -1.4847   -6.4001 H         1 UNK         0.0793 
     97 H97        22.6669   -3.0783   -5.9301 H         1 UNK         0.0793 
     98 H98        21.5347   -2.2020   -4.8981 H         1 UNK         0.0793 
     99 H99        23.4666   -3.1474   -3.5637 H         1 UNK         0.3024 
    100 H100       25.2912   -2.5073   -0.7405 H         1 UNK         0.1171 
    101 H101       24.2978   -4.7598   -0.6737 H         1 UNK         0.0786 
    102 H102       23.1228   -3.6376   -1.3274 H         1 UNK         0.0786 
    103 H103       23.9844   -4.7410   -2.4014 H         1 UNK         0.0786 
    104 H104       27.1545   -3.6655   -1.1541 H         1 UNK         0.2977 
    105 H105       25.5510    1.4711   -4.5510 H         1 UNK         0.3127 
    106 H106       25.3985    4.2553   -5.0865 H         1 UNK         0.0770 
    107 H107       23.3521    2.0353   -5.6345 H         1 UNK         0.0814 
    108 H108       23.0131    3.7581   -5.6028 H         1 UNK         0.0814 
    109 H109       23.5120    2.9431   -4.1302 H         1 UNK         0.0814 
    110 H110       25.5808    1.4444   -7.2530 H         1 UNK         0.2983 
    111 H111       25.2632    2.8405   -9.7267 H         1 UNK         0.0947 
    112 H112       26.2460    0.7660  -10.6975 H         1 UNK         0.0806 
    113 H113       25.0518    0.3584   -9.4735 H         1 UNK         0.0806 
    114 H114       26.7719    0.2458   -9.1040 H         1 UNK         0.0806 
    115 H115       27.9293    2.7218   -7.5258 H         1 UNK         0.3000 
    116 H116       29.9330    3.5410   -7.3719 H         1 UNK         0.0850 
    117 H117       30.6002    5.5453   -8.6767 H         1 UNK         0.0810 
    118 H118       28.9491    5.6869   -8.0947 H         1 UNK         0.0810 
    119 H119       29.2600    5.3065   -9.7864 H         1 UNK         0.0810 
    120 H120       29.4721    3.1106  -10.8894 H         1 UNK         0.3040 
    121 H121       32.2223    2.1041  -11.2765 H         1 UNK         0.0766 
    122 H122       31.2341    3.6707  -12.9376 H         1 UNK         0.0812 
    123 H123       29.9185    2.5393  -13.2514 H         1 UNK         0.0812 
    124 H124       31.5722    2.1150  -13.6766 H         1 UNK         0.0812 
    125 H125       31.2553    0.4472   -9.5147 H         1 UNK         0.3205 
    126 H126       31.0073   -2.1004  -10.9107 H         1 UNK         0.0754 
    127 H127       28.9436   -2.8080   -9.6471 H         1 UNK         0.0769 
    128 H128       28.6216   -1.5517  -10.8259 H         1 UNK         0.0769 
    129 H129       28.7124   -1.1405   -9.1225 H         1 UNK         0.0769 
    130 H130       30.2176   -1.0828   -7.5351 H         1 UNK         0.2981 
    131 H131       31.0134   -1.6568   -5.5766 H         1 UNK         0.0541 
    132 H132       30.5826   -4.1267   -7.6320 H         1 UNK         0.3459 
    133 H133       31.1428   -5.4195   -6.6035 H         1 UNK         0.3459 
    134 H134       33.6177   -1.8050   -5.3186 H         1 UNK         0.0612 
    135 H135       33.7051   -1.5008   -7.0170 H         1 UNK         0.0612 
    136 H136       34.4933   -0.0319   -4.0625 H         1 UNK         0.0624 
    137 H137       33.8892    1.5973   -3.9859 H         1 UNK         0.0624 
@<TRIPOS>BOND
     1    1    2 1    
     2    1   72 1    
     3    1   73 1    
     4    1   74 1    
     5    2    3 2    
     6    2    4 am   BACKBONE|DICT|INTERRES
     7    4    5 1    
     8    4   75 1    
     9    5    6 1    
    10    5   35 1    
    11    5   76 1    
    12    6    7 1    
    13    6   77 1    
    14    6   78 1    
    15    7    8 1    
    16    8    9 1    
    17    8   79 1    
    18    8   80 1    
    19    9   10 ar   
    20    9   14 ar   
    21   10   11 ar   
    22   10   81 1    
    23   11   12 ar   
    24   11   71 1    
    25   12   13 ar   
    26   12   82 1    
    27   13   14 ar   
    28   13   15 1    
    29   14   83 1    
    30   15   16 1    
    31   15   84 1    
    32   15   85 1    
    33   16   17 1    
    34   17   18 1    
    35   17   86 1    
    36   17   87 1    
    37   18   19 1    
    38   18   37 1    
    39   18   88 1    
    40   19   20 am   BACKBONE|DICT|INTERRES
    41   19   89 1    
    42   20   21 2    
    43   20   22 1    
    44   22   23 1    
    45   22   24 1    
    46   22   90 1    
    47   23   91 1    
    48   23   92 1    
    49   23   93 1    
    50   24   25 am   BACKBONE|DICT|INTERRES
    51   24   94 1    
    52   25   26 2    
    53   25   27 1    
    54   27   28 1    
    55   27   29 1    
    56   27   95 1    
    57   28   96 1    
    58   28   97 1    
    59   28   98 1    
    60   29   30 am   BACKBONE|DICT|INTERRES
    61   29   99 1    
    62   30   31 2    
    63   30   32 1    
    64   32   33 1    
    65   32   34 1    
    66   32  100 1    
    67   33  101 1    
    68   33  102 1    
    69   33  103 1    
    70   34   35 am   BACKBONE|DICT|INTERRES
    71   34  104 1    
    72   35   36 2    
    73   37   38 2    
    74   37   39 am   BACKBONE|DICT|INTERRES
    75   39   40 1    
    76   39  105 1    
    77   40   41 1    
    78   40   42 1    
    79   40  106 1    
    80   41  107 1    
    81   41  108 1    
    82   41  109 1    
    83   42   43 2    
    84   42   44 am   BACKBONE|DICT|INTERRES
    85   44   45 1    
    86   44  110 1    
    87   45   46 1    
    88   45   47 1    
    89   45  111 1    
    90   46  112 1    
    91   46  113 1    
    92   46  114 1    
    93   47   48 2    
    94   47   49 am   BACKBONE|DICT|INTERRES
    95   49   50 1    
    96   49  115 1    
    97   50   51 1    
    98   50   52 1    
    99   50  116 1    
   100   51  117 1    
   101   51  118 1    
   102   51  119 1    
   103   52   53 2    
   104   52   54 am   BACKBONE|DICT|INTERRES
   105   54   55 1    
   106   54  120 1    
   107   55   56 1    
   108   55   57 1    
   109   55  121 1    
   110   56  122 1    
   111   56  123 1    
   112   56  124 1    
   113   57   58 2    
   114   57   59 am   BACKBONE|DICT|INTERRES
   115   59   60 1    
   116   59  125 1    
   117   60   61 1    
   118   60   62 1    
   119   60  126 1    
   120   61  127 1    
   121   61  128 1    
   122   61  129 1    
   123   62   63 2    
   124   62   64 am   BACKBONE|DICT|INTERRES
   125   64   65 1    
   126   64  130 1    
   127   65   66 1    
   128   65   69 1    
   129   65  131 1    
   130   66   67 am   BACKBONE|DICT|INTERRES
   131   66   68 2    
   132   67  132 1    
   133   67  133 1    
   134   69   70 1    
   135   69  134 1    
   136   69  135 1    
   137   70   71 1    
   138   71  136 1    
   139   71  137 1    
@<TRIPOS>SUBSTRUCTURE
     1 UNK         1 GROUP             0       ****    0 ROOT    
