@<TRIPOS>MOLECULE
3R137
137   139    1
SMALL
USER_CHARGES


@<TRIPOS>ATOM
      1 CA         27.1021   -4.6416    1.8401 C.3       0 UNK        -0.2020 
      2 C          27.0797   -3.1859    1.3987 C.2       0 UNK         0.4855 
      3 O          26.3909   -2.3707    2.0123 O.2       0 UNK        -0.5197 
      4 N          27.8309   -2.8545    0.3402 N.am      1 UNK        -0.4892 
      5 CA         27.9244   -1.5043   -0.2320 C.3       1 UNK         0.0835 
      6 C6         29.1359   -1.3631   -1.1879 C.3       12 UNK        -0.0855 
      7 S7         30.7442   -1.4793   -0.3294 S.3       12 UNK        -0.2931 
      8 C8         31.2128   -3.2322   -0.5105 C.3       12 UNK         0.0378 
      9 C9         31.3976   -3.6492   -1.9630 C.ar      12 UNK        -0.0802 
     10 C10        32.5562   -3.2939   -2.6603 C.ar      12 UNK        -0.0944 
     11 C11        32.7424   -3.6938   -3.9883 C.ar      12 UNK        -0.0787 
     12 C12        31.7595   -4.4751   -4.6086 C.ar      12 UNK        -0.0862 
     13 C13        30.5785   -4.8015   -3.9345 C.ar      12 UNK        -0.0733 
     14 C14        30.4125   -4.4020   -2.6068 C.ar      12 UNK        -0.0832 
     15 C15        29.4566   -5.5456   -4.6476 C.3       12 UNK         0.0240 
     16 S16        28.8232   -4.6560   -6.1123 S.3       12 UNK        -0.2522 
     17 C17        28.8037   -2.9113   -5.5711 C.3       12 UNK        -0.0967 
     18 CA         28.2661   -1.9941   -6.6925 C.3       5 UNK         0.0660 
     19 N          26.8156   -2.0654   -6.8160 N.am      5 UNK        -0.4015 
     20 C          26.1550   -1.9544   -7.9733 C.2       4 UNK         0.4946 
     21 O          26.7043   -1.8486   -9.0698 O.2       4 UNK        -0.5353 
     22 CA         24.6185   -1.9029   -7.8853 C.3       4 UNK         0.0277 
     23 CB         24.0331   -3.3235   -7.8511 C.3       4 UNK        -0.1981 
     24 N          24.1370   -1.1447   -6.7267 N.am      4 UNK        -0.4209 
     25 C          24.4269    0.1420   -6.4862 C.2       3 UNK         0.4942 
     26 O          25.0752    0.8527   -7.2560 O.2       3 UNK        -0.5208 
     27 CA         23.9689    0.7259   -5.1390 C.3       3 UNK         0.0250 
     28 CB         22.5956    1.3976   -5.2923 C.3       3 UNK        -0.1990 
     29 N          23.9274   -0.2280   -4.0197 N.am      3 UNK        -0.4232 
     30 C          24.9450   -0.9922   -3.5942 C.2       2 UNK         0.4993 
     31 O          26.0289   -1.0855   -4.1758 O.2       2 UNK        -0.5286 
     32 CA         24.6942   -1.8364   -2.3340 C.3       2 UNK         0.0209 
     33 CB         24.1120   -3.2049   -2.7233 C.3       2 UNK        -0.1931 
     34 N          25.9211   -2.0473   -1.5596 N.am      2 UNK        -0.4546 
     35 C          26.6204   -1.0815   -0.9435 C.2       1 UNK         0.5154 
     36 O          26.2684    0.0986   -0.9071 O.2       1 UNK        -0.5181 
     37 C          28.7059   -0.5359   -6.4877 C.2       5 UNK         0.5014 
     38 O          29.5786   -0.0643   -7.2153 O.2       5 UNK        -0.5248 
     39 N          28.1183    0.1463   -5.4968 N.am      6 UNK        -0.4434 
     40 CA         28.5605    1.4565   -5.0170 C.3       6 UNK         0.0363 
     41 CB         27.8074    1.8121   -3.7259 C.3       6 UNK        -0.1936 
     42 C          28.4203    2.5976   -6.0348 C.2       6 UNK         0.5081 
     43 O          29.3015    3.4561   -6.0830 O.2       6 UNK        -0.5248 
     44 N          27.3226    2.6066   -6.8015 N.am      7 UNK        -0.4718 
     45 CA         26.9758    3.6936   -7.7166 C.3       7 UNK         0.0273 
     46 CB         25.5770    4.2343   -7.3708 C.3       7 UNK        -0.1935 
     47 C          27.0424    3.2479   -9.1801 C.2       7 UNK         0.5018 
     48 O          27.6591    3.9494   -9.9820 O.2       7 UNK        -0.5186 
     49 N          26.4021    2.1164   -9.5146 N.am      8 UNK        -0.4240 
     50 CA         26.2805    1.6455  -10.8990 C.3       8 UNK         0.0235 
     51 CB         25.1362    0.6299  -11.0340 C.3       8 UNK        -0.2000 
     52 C          27.6064    1.1063  -11.4590 C.2       8 UNK         0.4941 
     53 O          28.0627    1.6005  -12.4910 O.2       8 UNK        -0.5273 
     54 N          28.2209    0.1344  -10.7669 N.am      9 UNK        -0.4262 
     55 CA         29.5564   -0.3738  -11.1105 C.3       9 UNK         0.0264 
     56 CB         29.7720   -1.7565  -10.4769 C.3       9 UNK        -0.1955 
     57 C          30.6897    0.5820  -10.6917 C.2       9 UNK         0.5031 
     58 O          31.7753    0.5058  -11.2690 O.2       9 UNK        -0.5390 
     59 N          30.4187    1.4447   -9.7000 N.am      10 UNK        -0.4204 
     60 CA         31.3283    2.4109   -9.0734 C.3       10 UNK         0.0237 
     61 CB         31.7482    3.5077  -10.0751 C.3       10 UNK        -0.1985 
     62 C          32.5205    1.7282   -8.3735 C.2       10 UNK         0.4970 
     63 O          33.6651    2.1554   -8.5367 O.2       10 UNK        -0.4914 
     64 N          32.2220    0.6707   -7.6084 N.am      11 UNK        -0.4285 
     65 CA         33.1873   -0.1247   -6.8347 C.3       11 UNK         0.1007 
     66 C          33.8007    0.6133   -5.6077 C.2       11 UNK         0.5703 
     67 N          33.2115    1.7027   -5.1270 N.am      11 UNK        -0.7361 
     68 O          34.8367    0.2012   -5.0926 O.2       11 UNK        -0.4986 
     69 C69        32.5720   -1.4952   -6.4341 C.3       12 UNK        -0.0947 
     70 S70        33.7696   -2.8707   -6.4935 S.3       12 UNK        -0.2240 
     71 C71        34.0120   -3.2705   -4.7264 C.3       12 UNK         0.0194 
     72 H72        27.4490   -4.7152    2.8705 H         1 UNK         0.0906 
     73 H73        26.0992   -5.0646    1.7876 H         1 UNK         0.0906 
     74 H74        27.7592   -5.2488    1.2179 H         1 UNK         0.0906 
     75 H75        28.3873   -3.5638   -0.1109 H         1 UNK         0.3140 
     76 H76        28.0651   -0.8034    0.5945 H         1 UNK         0.1085 
     77 H77        29.0790   -2.0801   -2.0069 H         1 UNK         0.0836 
     78 H78        29.1263   -0.3811   -1.6619 H         1 UNK         0.0836 
     79 H79        32.1474   -3.3967    0.0279 H         1 UNK         0.0731 
     80 H80        30.4732   -3.8623   -0.0160 H         1 UNK         0.0731 
     81 H81        33.3125   -2.6999   -2.1650 H         1 UNK         0.1312 
     82 H82        31.8860   -4.7916   -5.6347 H         1 UNK         0.1406 
     83 H83        29.5073   -4.6670   -2.0786 H         1 UNK         0.1631 
     84 H84        28.6206   -5.7258   -3.9701 H         1 UNK         0.0717 
     85 H85        29.8166   -6.5274   -4.9575 H         1 UNK         0.0717 
     86 H86        28.2170   -2.8141   -4.6554 H         1 UNK         0.0934 
     87 H87        29.8251   -2.6268   -5.3142 H         1 UNK         0.0934 
     88 H88        28.7190   -2.3281   -7.6262 H         1 UNK         0.0739 
     89 H89        26.2932   -2.0601   -5.9477 H         1 UNK         0.3093 
     90 H90        24.2475   -1.4029   -8.7811 H         1 UNK         0.0818 
     91 H91        22.9433   -3.3051   -7.8745 H         1 UNK         0.0819 
     92 H92        24.3639   -3.9008   -8.7158 H         1 UNK         0.0819 
     93 H93        24.3421   -3.8687   -6.9583 H         1 UNK         0.0819 
     94 H94        23.5942   -1.6482   -6.0407 H         1 UNK         0.3041 
     95 H95        24.6887    1.5006   -4.8723 H         1 UNK         0.0784 
     96 H96        22.6061    2.1280   -6.1030 H         1 UNK         0.0793 
     97 H97        21.8130    0.6720   -5.5173 H         1 UNK         0.0793 
     98 H98        22.3101    1.9308   -4.3852 H         1 UNK         0.0793 
     99 H99        23.0666   -0.2445   -3.4911 H         1 UNK         0.3024 
    100 H100       23.9809   -1.3107   -1.6952 H         1 UNK         0.1171 
    101 H101       23.1752   -3.0933   -3.2710 H         1 UNK         0.0786 
    102 H102       23.8977   -3.8102   -1.8422 H         1 UNK         0.0786 
    103 H103       24.7963   -3.7685   -3.3594 H         1 UNK         0.0786 
    104 H104       26.2880   -2.9865   -1.5377 H         1 UNK         0.2977 
    105 H105       27.3756   -0.3072   -4.9632 H         1 UNK         0.3127 
    106 H106       29.6213    1.3670   -4.7725 H         1 UNK         0.0770 
    107 H107       26.7403    1.9428   -3.9007 H         1 UNK         0.0814 
    108 H108       28.1830    2.7426   -3.2982 H         1 UNK         0.0814 
    109 H109       27.9230    1.0388   -2.9699 H         1 UNK         0.0814 
    110 H110       26.6594    1.8398   -6.7403 H         1 UNK         0.2983 
    111 H111       27.6775    4.5236   -7.6055 H         1 UNK         0.0947 
    112 H112       25.3068    5.0617   -8.0281 H         1 UNK         0.0806 
    113 H113       25.5419    4.6096   -6.3480 H         1 UNK         0.0806 
    114 H114       24.8030    3.4735   -7.4725 H         1 UNK         0.0806 
    115 H115       25.9079    1.5976   -8.7922 H         1 UNK         0.3000 
    116 H116       26.0048    2.5086  -11.5098 H         1 UNK         0.0850 
    117 H117       24.9775    0.3646  -12.0800 H         1 UNK         0.0810 
    118 H118       24.1975    1.0349  -10.6557 H         1 UNK         0.0810 
    119 H119       25.3426   -0.2924  -10.4989 H         1 UNK         0.0810 
    120 H120       27.7450   -0.3020   -9.9828 H         1 UNK         0.3040 
    121 H121       29.6081   -0.4939  -12.1949 H         1 UNK         0.0766 
    122 H122       30.6804   -2.2200  -10.8636 H         1 UNK         0.0812 
    123 H123       28.9444   -2.4332  -10.6906 H         1 UNK         0.0812 
    124 H124       29.8864   -1.6864   -9.3971 H         1 UNK         0.0812 
    125 H125       29.5111    1.3598   -9.2639 H         1 UNK         0.3205 
    126 H126       30.7541    2.8974   -8.2845 H         1 UNK         0.0754 
    127 H127       32.3217    4.2909   -9.5779 H         1 UNK         0.0769 
    128 H128       30.8769    3.9819  -10.5274 H         1 UNK         0.0769 
    129 H129       32.3692    3.1099  -10.8782 H         1 UNK         0.0769 
    130 H130       31.2440    0.3974   -7.5144 H         1 UNK         0.2981 
    131 H131       34.0199   -0.3147   -7.5148 H         1 UNK         0.0541 
    132 H132       32.3688    2.0579   -5.5484 H         1 UNK         0.3459 
    133 H133       33.6224    2.1769   -4.3387 H         1 UNK         0.3459 
    134 H134       31.7823   -1.7733   -7.1341 H         1 UNK         0.0612 
    135 H135       32.0839   -1.4443   -5.4593 H         1 UNK         0.0612 
    136 H136       34.7406   -4.0784   -4.6515 H         1 UNK         0.0624 
    137 H137       34.4614   -2.4035   -4.2402 H         1 UNK         0.0624 
@<TRIPOS>BOND
     1    1    2 1    
     2    1   72 1    
     3    1   73 1    
     4    1   74 1    
     5    2    3 2    
     6    2    4 am   BACKBONE|DICT|INTERRES
     7    4    5 1    
     8    4   75 1    
     9    5    6 1    
    10    5   35 1    
    11    5   76 1    
    12    6    7 1    
    13    6   77 1    
    14    6   78 1    
    15    7    8 1    
    16    8    9 1    
    17    8   79 1    
    18    8   80 1    
    19    9   10 ar   
    20    9   14 ar   
    21   10   11 ar   
    22   10   81 1    
    23   11   12 ar   
    24   11   71 1    
    25   12   13 ar   
    26   12   82 1    
    27   13   14 ar   
    28   13   15 1    
    29   14   83 1    
    30   15   16 1    
    31   15   84 1    
    32   15   85 1    
    33   16   17 1    
    34   17   18 1    
    35   17   86 1    
    36   17   87 1    
    37   18   19 1    
    38   18   37 1    
    39   18   88 1    
    40   19   20 am   BACKBONE|DICT|INTERRES
    41   19   89 1    
    42   20   21 2    
    43   20   22 1    
    44   22   23 1    
    45   22   24 1    
    46   22   90 1    
    47   23   91 1    
    48   23   92 1    
    49   23   93 1    
    50   24   25 am   BACKBONE|DICT|INTERRES
    51   24   94 1    
    52   25   26 2    
    53   25   27 1    
    54   27   28 1    
    55   27   29 1    
    56   27   95 1    
    57   28   96 1    
    58   28   97 1    
    59   28   98 1    
    60   29   30 am   BACKBONE|DICT|INTERRES
    61   29   99 1    
    62   30   31 2    
    63   30   32 1    
    64   32   33 1    
    65   32   34 1    
    66   32  100 1    
    67   33  101 1    
    68   33  102 1    
    69   33  103 1    
    70   34   35 am   BACKBONE|DICT|INTERRES
    71   34  104 1    
    72   35   36 2    
    73   37   38 2    
    74   37   39 am   BACKBONE|DICT|INTERRES
    75   39   40 1    
    76   39  105 1    
    77   40   41 1    
    78   40   42 1    
    79   40  106 1    
    80   41  107 1    
    81   41  108 1    
    82   41  109 1    
    83   42   43 2    
    84   42   44 am   BACKBONE|DICT|INTERRES
    85   44   45 1    
    86   44  110 1    
    87   45   46 1    
    88   45   47 1    
    89   45  111 1    
    90   46  112 1    
    91   46  113 1    
    92   46  114 1    
    93   47   48 2    
    94   47   49 am   BACKBONE|DICT|INTERRES
    95   49   50 1    
    96   49  115 1    
    97   50   51 1    
    98   50   52 1    
    99   50  116 1    
   100   51  117 1    
   101   51  118 1    
   102   51  119 1    
   103   52   53 2    
   104   52   54 am   BACKBONE|DICT|INTERRES
   105   54   55 1    
   106   54  120 1    
   107   55   56 1    
   108   55   57 1    
   109   55  121 1    
   110   56  122 1    
   111   56  123 1    
   112   56  124 1    
   113   57   58 2    
   114   57   59 am   BACKBONE|DICT|INTERRES
   115   59   60 1    
   116   59  125 1    
   117   60   61 1    
   118   60   62 1    
   119   60  126 1    
   120   61  127 1    
   121   61  128 1    
   122   61  129 1    
   123   62   63 2    
   124   62   64 am   BACKBONE|DICT|INTERRES
   125   64   65 1    
   126   64  130 1    
   127   65   66 1    
   128   65   69 1    
   129   65  131 1    
   130   66   67 am   BACKBONE|DICT|INTERRES
   131   66   68 2    
   132   67  132 1    
   133   67  133 1    
   134   69   70 1    
   135   69  134 1    
   136   69  135 1    
   137   70   71 1    
   138   71  136 1    
   139   71  137 1    
@<TRIPOS>SUBSTRUCTURE
     1 UNK         1 GROUP             0       ****    0 ROOT    
