@<TRIPOS>MOLECULE
3R137
137   139    1
SMALL
USER_CHARGES


@<TRIPOS>ATOM
      1 CA         25.0806   -1.9808    1.2043 C.3       0 UNK        -0.2020 
      2 C          25.8985   -2.2933   -0.0389 C.2       0 UNK         0.4855 
      3 O          25.5491   -1.8364   -1.1269 O.2       0 UNK        -0.5197 
      4 N          26.9712   -3.0831    0.1149 N.am      1 UNK        -0.4892 
      5 CA         27.9486   -3.4519   -0.9231 C.3       1 UNK         0.0835 
      6 C6         29.0570   -4.3767   -0.3555 C.3       12 UNK        -0.0855 
      7 S7         29.9649   -3.5982    1.0293 S.3       12 UNK        -0.2931 
      8 C8         31.5773   -3.1897    0.2764 C.3       12 UNK         0.0378 
      9 C9         31.4235   -2.4024   -1.0170 C.ar      12 UNK        -0.0802 
     10 C10        31.7989   -2.9753   -2.2352 C.ar      12 UNK        -0.0944 
     11 C11        31.5868   -2.2940   -3.4367 C.ar      12 UNK        -0.0787 
     12 C12        30.9947   -1.0275   -3.4142 C.ar      12 UNK        -0.0862 
     13 C13        30.6336   -0.4375   -2.1984 C.ar      12 UNK        -0.0733 
     14 C14        30.8656   -1.1214   -1.0020 C.ar      12 UNK        -0.0832 
     15 C15        29.9417    0.9137   -2.1766 C.3       12 UNK         0.0240 
     16 S16        28.1510    0.6760   -1.9796 S.3       12 UNK        -0.2522 
     17 C17        27.4738    2.0708   -2.9398 C.3       12 UNK        -0.0967 
     18 CA         27.5767    1.8902   -4.4792 C.3       5 UNK         0.0660 
     19 N          27.2711    0.5199   -4.9041 N.am      5 UNK        -0.4015 
     20 C          27.3796    0.0236   -6.1438 C.2       4 UNK         0.4946 
     21 O          27.7076    0.6916   -7.1241 O.2       4 UNK        -0.5353 
     22 CA         27.0295   -1.4613   -6.3290 C.3       4 UNK         0.0277 
     23 CB         28.3061   -2.3145   -6.2760 C.3       4 UNK        -0.1981 
     24 N          26.0609   -1.9583   -5.3439 N.am      4 UNK        -0.4209 
     25 C          24.7907   -1.5303   -5.2453 C.2       3 UNK         0.4942 
     26 O          24.3216   -0.6531   -5.9730 O.2       3 UNK        -0.5208 
     27 CA         23.9056   -2.1194   -4.1287 C.3       3 UNK         0.0250 
     28 CB         22.4651   -2.4005   -4.6071 C.3       3 UNK        -0.1990 
     29 N          24.4844   -3.2811   -3.4431 N.am      3 UNK        -0.4232 
     30 C          24.7060   -4.5110   -3.9361 C.2       2 UNK         0.4993 
     31 O          24.3943   -4.8573   -5.0762 O.2       2 UNK        -0.5286 
     32 CA         25.4096   -5.5193   -2.9998 C.3       2 UNK         0.0209 
     33 CB         26.2095   -6.5878   -3.7765 C.3       2 UNK        -0.1931 
     34 N          26.2543   -4.8870   -1.9742 N.am      2 UNK        -0.4546 
     35 C          27.3093   -4.0810   -2.1788 C.2       1 UNK         0.5154 
     36 O          27.7366   -3.7820   -3.2943 O.2       1 UNK        -0.5181 
     37 C          26.7282    2.9643   -5.1914 C.2       5 UNK         0.5014 
     38 O          27.1816    4.1032   -5.3082 O.2       5 UNK        -0.5248 
     39 N          25.5246    2.5916   -5.6550 N.am      6 UNK        -0.4434 
     40 CA         24.6300    3.4537   -6.4303 C.3       6 UNK         0.0363 
     41 CB         23.2443    2.7949   -6.5222 C.3       6 UNK        -0.1936 
     42 C          25.1734    3.7671   -7.8358 C.2       6 UNK         0.5081 
     43 O          24.9259    4.8599   -8.3466 O.2       6 UNK        -0.5248 
     44 N          25.9044    2.8134   -8.4280 N.am      7 UNK        -0.4718 
     45 CA         26.5898    2.9724   -9.7109 C.3       7 UNK         0.0273 
     46 CB         26.5342    1.6423  -10.4784 C.3       7 UNK        -0.1935 
     47 C          28.0475    3.4159   -9.5195 C.2       7 UNK         0.5018 
     48 O          28.5626    4.1624  -10.3526 O.2       7 UNK        -0.5186 
     49 N          28.6932    2.9224   -8.4511 N.am      8 UNK        -0.4240 
     50 CA         30.0933    3.0970   -8.0417 C.3       8 UNK         0.0235 
     51 CB         30.4537    4.5776   -7.8148 C.3       8 UNK        -0.2000 
     52 C          31.0845    2.4000   -8.9868 C.2       8 UNK         0.4941 
     53 O          31.8661    1.5633   -8.5351 O.2       8 UNK        -0.5273 
     54 N          30.9862    2.6959  -10.2895 N.am      9 UNK        -0.4262 
     55 CA         31.7585    2.0884  -11.3795 C.3       9 UNK         0.0264 
     56 CB         31.4573    2.8459  -12.6830 C.3       9 UNK        -0.1955 
     57 C          31.5131    0.5774  -11.5640 C.2       9 UNK         0.5031 
     58 O          32.3167   -0.0861  -12.2201 O.2       9 UNK        -0.5390 
     59 N          30.4247    0.0577  -10.9779 N.am      10 UNK        -0.4204 
     60 CA         30.1160   -1.3695  -10.8861 C.3       10 UNK         0.0237 
     61 CB         28.6674   -1.5428  -10.3999 C.3       10 UNK        -0.1985 
     62 C          31.0818   -2.1450   -9.9705 C.2       10 UNK         0.4970 
     63 O          31.2345   -3.3520  -10.1622 O.2       10 UNK        -0.4914 
     64 N          31.7027   -1.4625   -8.9970 N.am      11 UNK        -0.4285 
     65 CA         32.7148   -2.0414   -8.1087 C.3       11 UNK         0.1007 
     66 C          34.0786   -2.2002   -8.8347 C.2       11 UNK         0.5703 
     67 N          34.7244   -3.3520   -8.7102 N.am      11 UNK        -0.7361 
     68 O          34.5682   -1.2773   -9.4829 O.2       11 UNK        -0.4986 
     69 C69        32.8372   -1.2202   -6.7984 C.3       12 UNK        -0.0947 
     70 S70        33.5009   -2.2321   -5.4343 S.3       12 UNK        -0.2240 
     71 C71        31.9728   -2.9476   -4.7541 C.3       12 UNK         0.0194 
     72 H72        25.4920   -2.4554    2.0949 H         1 UNK         0.0906 
     73 H73        25.0566   -0.9047    1.3738 H         1 UNK         0.0906 
     74 H74        24.0558   -2.3283    1.0762 H         1 UNK         0.0906 
     75 H75        27.2043   -3.4113    1.0420 H         1 UNK         0.3140 
     76 H76        28.4142   -2.5224   -1.2571 H         1 UNK         0.1085 
     77 H77        29.7627   -4.6643   -1.1370 H         1 UNK         0.0836 
     78 H78        28.6234   -5.3103    0.0081 H         1 UNK         0.0836 
     79 H79        32.1311   -4.1143    0.1056 H         1 UNK         0.0731 
     80 H80        32.1652   -2.6065    0.9865 H         1 UNK         0.0731 
     81 H81        32.2354   -3.9647   -2.2511 H         1 UNK         0.1312 
     82 H82        30.8067   -0.5065   -4.3426 H         1 UNK         0.1406 
     83 H83        30.5619   -0.6798   -0.0622 H         1 UNK         0.1631 
     84 H84        30.1585    1.4608   -3.0945 H         1 UNK         0.0717 
     85 H85        30.3211    1.5233   -1.3552 H         1 UNK         0.0717 
     86 H86        26.4302    2.1781   -2.6357 H         1 UNK         0.0934 
     87 H87        27.9720    2.9914   -2.6289 H         1 UNK         0.0934 
     88 H88        28.6116    2.0739   -4.7739 H         1 UNK         0.0739 
     89 H89        27.0138   -0.1134   -4.1603 H         1 UNK         0.3093 
     90 H90        26.5839   -1.5697   -7.3200 H         1 UNK         0.0818 
     91 H91        28.0919   -3.3637   -6.4797 H         1 UNK         0.0819 
     92 H92        28.7853   -2.2558   -5.2980 H         1 UNK         0.0819 
     93 H93        29.0342   -1.9814   -7.0173 H         1 UNK         0.0819 
     94 H94        26.3906   -2.6682   -4.6993 H         1 UNK         0.3041 
     95 H95        23.8450   -1.3393   -3.3683 H         1 UNK         0.0784 
     96 H96        21.9842   -1.4860   -4.9568 H         1 UNK         0.0793 
     97 H97        22.4416   -3.1114   -5.4333 H         1 UNK         0.0793 
     98 H98        21.8495   -2.7996   -3.8012 H         1 UNK         0.0793 
     99 H99        24.8326   -3.0736   -2.5107 H         1 UNK         0.3024 
    100 H100       24.6083   -6.0323   -2.4653 H         1 UNK         0.1171 
    101 H101       26.6890   -7.2948   -3.0995 H         1 UNK         0.0786 
    102 H102       25.5585   -7.1645   -4.4347 H         1 UNK         0.0786 
    103 H103       26.9851   -6.1403   -4.3990 H         1 UNK         0.0786 
    104 H104       25.9688   -5.0373   -1.0159 H         1 UNK         0.2977 
    105 H105       25.2293    1.6326   -5.5253 H         1 UNK         0.3127 
    106 H106       24.5247    4.4010   -5.8970 H         1 UNK         0.0770 
    107 H107       23.2879    1.8308   -7.0311 H         1 UNK         0.0814 
    108 H108       22.5487    3.4258   -7.0773 H         1 UNK         0.0814 
    109 H109       22.8149    2.6325   -5.5335 H         1 UNK         0.0814 
    110 H110       26.0869    1.9574   -7.9190 H         1 UNK         0.2983 
    111 H111       26.0881    3.7334  -10.3132 H         1 UNK         0.0947 
    112 H112       27.0763    1.7082  -11.4230 H         1 UNK         0.0806 
    113 H113       25.5061    1.3670  -10.7142 H         1 UNK         0.0806 
    114 H114       26.9717    0.8278   -9.9015 H         1 UNK         0.0806 
    115 H115       28.1925    2.2284   -7.8972 H         1 UNK         0.3000 
    116 H116       30.1763    2.5926   -7.0773 H         1 UNK         0.0850 
    117 H117       31.4639    4.6730   -7.4149 H         1 UNK         0.0810 
    118 H118       29.7756    5.0407   -7.0976 H         1 UNK         0.0810 
    119 H119       30.4149    5.1597   -8.7357 H         1 UNK         0.0810 
    120 H120       30.2708    3.3711  -10.5510 H         1 UNK         0.3040 
    121 H121       32.8171    2.2141  -11.1430 H         1 UNK         0.0766 
    122 H122       32.0363    2.4413  -13.5146 H         1 UNK         0.0812 
    123 H123       31.7132    3.9021  -12.5966 H         1 UNK         0.0812 
    124 H124       30.4031    2.7769  -12.9546 H         1 UNK         0.0812 
    125 H125       29.8195    0.6879  -10.4743 H         1 UNK         0.3205 
    126 H126       30.1974   -1.7990  -11.8868 H         1 UNK         0.0754 
    127 H127       28.5113   -1.0887   -9.4202 H         1 UNK         0.0769 
    128 H128       28.4075   -2.5989  -10.3132 H         1 UNK         0.0769 
    129 H129       27.9599   -1.0964  -11.0986 H         1 UNK         0.0769 
    130 H130       31.5908   -0.4567   -8.9366 H         1 UNK         0.2981 
    131 H131       32.3556   -3.0373   -7.8398 H         1 UNK         0.0541 
    132 H132       34.3396   -4.1070   -8.1644 H         1 UNK         0.3459 
    133 H133       35.6165   -3.4658   -9.1651 H         1 UNK         0.3459 
    134 H134       31.8635   -0.8318   -6.4962 H         1 UNK         0.0612 
    135 H135       33.4715   -0.3426   -6.9371 H         1 UNK         0.0612 
    136 H136       32.1298   -4.0182   -4.6140 H         1 UNK         0.0624 
    137 H137       31.1548   -2.8599   -5.4694 H         1 UNK         0.0624 
@<TRIPOS>BOND
     1    1    2 1    
     2    1   72 1    
     3    1   73 1    
     4    1   74 1    
     5    2    3 2    
     6    2    4 am   BACKBONE|DICT|INTERRES
     7    4    5 1    
     8    4   75 1    
     9    5    6 1    
    10    5   35 1    
    11    5   76 1    
    12    6    7 1    
    13    6   77 1    
    14    6   78 1    
    15    7    8 1    
    16    8    9 1    
    17    8   79 1    
    18    8   80 1    
    19    9   10 ar   
    20    9   14 ar   
    21   10   11 ar   
    22   10   81 1    
    23   11   12 ar   
    24   11   71 1    
    25   12   13 ar   
    26   12   82 1    
    27   13   14 ar   
    28   13   15 1    
    29   14   83 1    
    30   15   16 1    
    31   15   84 1    
    32   15   85 1    
    33   16   17 1    
    34   17   18 1    
    35   17   86 1    
    36   17   87 1    
    37   18   19 1    
    38   18   37 1    
    39   18   88 1    
    40   19   20 am   BACKBONE|DICT|INTERRES
    41   19   89 1    
    42   20   21 2    
    43   20   22 1    
    44   22   23 1    
    45   22   24 1    
    46   22   90 1    
    47   23   91 1    
    48   23   92 1    
    49   23   93 1    
    50   24   25 am   BACKBONE|DICT|INTERRES
    51   24   94 1    
    52   25   26 2    
    53   25   27 1    
    54   27   28 1    
    55   27   29 1    
    56   27   95 1    
    57   28   96 1    
    58   28   97 1    
    59   28   98 1    
    60   29   30 am   BACKBONE|DICT|INTERRES
    61   29   99 1    
    62   30   31 2    
    63   30   32 1    
    64   32   33 1    
    65   32   34 1    
    66   32  100 1    
    67   33  101 1    
    68   33  102 1    
    69   33  103 1    
    70   34   35 am   BACKBONE|DICT|INTERRES
    71   34  104 1    
    72   35   36 2    
    73   37   38 2    
    74   37   39 am   BACKBONE|DICT|INTERRES
    75   39   40 1    
    76   39  105 1    
    77   40   41 1    
    78   40   42 1    
    79   40  106 1    
    80   41  107 1    
    81   41  108 1    
    82   41  109 1    
    83   42   43 2    
    84   42   44 am   BACKBONE|DICT|INTERRES
    85   44   45 1    
    86   44  110 1    
    87   45   46 1    
    88   45   47 1    
    89   45  111 1    
    90   46  112 1    
    91   46  113 1    
    92   46  114 1    
    93   47   48 2    
    94   47   49 am   BACKBONE|DICT|INTERRES
    95   49   50 1    
    96   49  115 1    
    97   50   51 1    
    98   50   52 1    
    99   50  116 1    
   100   51  117 1    
   101   51  118 1    
   102   51  119 1    
   103   52   53 2    
   104   52   54 am   BACKBONE|DICT|INTERRES
   105   54   55 1    
   106   54  120 1    
   107   55   56 1    
   108   55   57 1    
   109   55  121 1    
   110   56  122 1    
   111   56  123 1    
   112   56  124 1    
   113   57   58 2    
   114   57   59 am   BACKBONE|DICT|INTERRES
   115   59   60 1    
   116   59  125 1    
   117   60   61 1    
   118   60   62 1    
   119   60  126 1    
   120   61  127 1    
   121   61  128 1    
   122   61  129 1    
   123   62   63 2    
   124   62   64 am   BACKBONE|DICT|INTERRES
   125   64   65 1    
   126   64  130 1    
   127   65   66 1    
   128   65   69 1    
   129   65  131 1    
   130   66   67 am   BACKBONE|DICT|INTERRES
   131   66   68 2    
   132   67  132 1    
   133   67  133 1    
   134   69   70 1    
   135   69  134 1    
   136   69  135 1    
   137   70   71 1    
   138   71  136 1    
   139   71  137 1    
@<TRIPOS>SUBSTRUCTURE
     1 UNK         1 GROUP             0       ****    0 ROOT    
