@<TRIPOS>MOLECULE
3R137
137   139    1
SMALL
USER_CHARGES


@<TRIPOS>ATOM
      1 CA         30.5639    1.2500   -0.2442 C.3       0 UNK        -0.2020 
      2 C          29.7523   -0.0320   -0.1317 C.2       0 UNK         0.4855 
      3 O          29.4197   -0.4448    0.9793 O.2       0 UNK        -0.5197 
      4 N          29.4252   -0.6503   -1.2757 N.am      1 UNK        -0.4892 
      5 CA         28.6851   -1.9185   -1.4142 C.3       1 UNK         0.0835 
      6 C6         29.3948   -3.1432   -0.7645 C.3       12 UNK        -0.0855 
      7 S7         31.1458   -3.3441   -1.2483 S.3       12 UNK        -0.2931 
      8 C8         31.1652   -4.9609   -2.0943 C.3       12 UNK         0.0378 
      9 C9         31.1918   -4.8019   -3.6068 C.ar      12 UNK        -0.0802 
     10 C10        32.3477   -4.3132   -4.2232 C.ar      12 UNK        -0.0944 
     11 C11        32.3977   -4.1470   -5.6083 C.ar      12 UNK        -0.0787 
     12 C12        31.2909   -4.5025   -6.3835 C.ar      12 UNK        -0.0862 
     13 C13        30.1290   -4.9987   -5.7827 C.ar      12 UNK        -0.0733 
     14 C14        30.0846   -5.1477   -4.3909 C.ar      12 UNK        -0.0832 
     15 C15        28.9262   -5.3599   -6.6505 C.3       12 UNK         0.0240 
     16 S16        27.4458   -4.3511   -6.2964 S.3       12 UNK        -0.2522 
     17 C17        28.0968   -2.6476   -6.3456 C.3       12 UNK        -0.0967 
     18 CA         27.4388   -1.7173   -7.3907 C.3       5 UNK         0.0660 
     19 N          25.9755   -1.7386   -7.3092 N.am      5 UNK        -0.4015 
     20 C          25.1230   -0.9394   -7.9671 C.2       4 UNK         0.4946 
     21 O          25.4672   -0.1442   -8.8424 O.2       4 UNK        -0.5353 
     22 CA         23.6482   -0.9677   -7.5202 C.3       4 UNK         0.0277 
     23 CB         22.8210   -1.8373   -8.4797 C.3       4 UNK        -0.1981 
     24 N          23.4199   -1.4140   -6.1354 N.am      4 UNK        -0.4209 
     25 C          24.0148   -0.9209   -5.0380 C.2       3 UNK         0.4942 
     26 O          24.8691   -0.0284   -5.0633 O.2       3 UNK        -0.5208 
     27 CA         23.6427   -1.5708   -3.6987 C.3       3 UNK         0.0250 
     28 CB         23.9089   -3.0910   -3.7074 C.3       3 UNK        -0.1990 
     29 N          24.4524   -0.9394   -2.6637 N.am      3 UNK        -0.4232 
     30 C          24.2091   -0.9151   -1.3511 C.2       2 UNK         0.4993 
     31 O          23.2064   -1.4069   -0.8288 O.2       2 UNK        -0.5286 
     32 CA         25.2925   -0.2345   -0.4890 C.3       2 UNK         0.0209 
     33 CB         25.1053   -0.4881    1.0225 C.3       2 UNK        -0.1931 
     34 N          26.6614   -0.5856   -0.9061 N.am      2 UNK        -0.4546 
     35 C          27.2056   -1.8145   -0.9635 C.2       1 UNK         0.5154 
     36 O          26.5865   -2.8439   -0.6881 O.2       1 UNK        -0.5181 
     37 C          28.0328   -0.3036   -7.2101 C.2       5 UNK         0.5014 
     38 O          28.9798    0.0445   -7.9134 O.2       5 UNK        -0.5248 
     39 N          27.4550    0.4912   -6.2958 N.am      6 UNK        -0.4434 
     40 CA         27.8839    1.8586   -5.9959 C.3       6 UNK         0.0363 
     41 CB         27.2279    2.3220   -4.6860 C.3       6 UNK        -0.1936 
     42 C          27.6022    2.8569   -7.1335 C.2       6 UNK         0.5081 
     43 O          28.2338    3.9119   -7.1688 O.2       6 UNK        -0.5248 
     44 N          26.6828    2.5156   -8.0456 N.am      7 UNK        -0.4718 
     45 CA         26.4268    3.2642   -9.2749 C.3       7 UNK         0.0273 
     46 CB         24.9173    3.2681   -9.5697 C.3       7 UNK        -0.1935 
     47 C          27.2103    2.6598  -10.4493 C.2       7 UNK         0.5018 
     48 O          27.8126    3.4063  -11.2208 O.2       7 UNK        -0.5186 
     49 N          27.1798    1.3249  -10.5696 N.am      8 UNK        -0.4240 
     50 CA         27.7583    0.5752  -11.6853 C.3       8 UNK         0.0235 
     51 CB         27.1900   -0.8536  -11.6817 C.3       8 UNK        -0.2000 
     52 C          29.2953    0.5388  -11.6965 C.2       8 UNK         0.4941 
     53 O          29.8840    0.6525  -12.7727 O.2       8 UNK        -0.5273 
     54 N          29.9130    0.3489  -10.5236 N.am      9 UNK        -0.4262 
     55 CA         31.3510    0.1077  -10.3668 C.3       9 UNK         0.0264 
     56 CB         31.5533   -1.3708   -9.9850 C.3       9 UNK        -0.1955 
     57 C          32.0109    1.0353   -9.3319 C.2       9 UNK         0.5031 
     58 O          33.2048    0.8798   -9.0762 O.2       9 UNK        -0.5390 
     59 N          31.2428    1.9554   -8.7301 N.am      10 UNK        -0.4204 
     60 CA         31.6071    2.9127   -7.6713 C.3       10 UNK         0.0237 
     61 CB         32.7819    3.8195   -8.0909 C.3       10 UNK        -0.1985 
     62 C          31.8508    2.2874   -6.2823 C.2       10 UNK         0.4970 
     63 O          31.6024    2.9611   -5.2826 O.2       10 UNK        -0.4914 
     64 N          32.3190    1.0361   -6.2349 N.am      11 UNK        -0.4285 
     65 CA         32.4941    0.2107   -5.0346 C.3       11 UNK         0.1007 
     66 C          31.1342   -0.2802   -4.4628 C.2       11 UNK         0.5703 
     67 N          30.7573   -1.5271   -4.6882 N.am      11 UNK        -0.7361 
     68 O          30.4366    0.4455   -3.7584 O.2       11 UNK        -0.4986 
     69 C69        33.5631   -0.9048   -5.2488 C.3       12 UNK        -0.0947 
     70 S70        33.3834   -1.8534   -6.8043 S.3       12 UNK        -0.2240 
     71 C71        33.6402   -3.5739   -6.2701 C.3       12 UNK         0.0194 
     72 H72        30.7383    1.5347   -1.2816 H         1 UNK         0.0906 
     73 H73        30.0416    2.0700    0.2478 H         1 UNK         0.0906 
     74 H74        31.5320    1.1229    0.2393 H         1 UNK         0.0906 
     75 H75        29.7467   -0.2422   -2.1525 H         1 UNK         0.3140 
     76 H76        28.6364   -2.1133   -2.4857 H         1 UNK         0.1085 
     77 H77        29.3627   -3.0633    0.3234 H         1 UNK         0.0836 
     78 H78        28.8535   -4.0591   -1.0058 H         1 UNK         0.0836 
     79 H79        30.3259   -5.5804   -1.7764 H         1 UNK         0.0731 
     80 H80        32.0626   -5.4987   -1.7848 H         1 UNK         0.0731 
     81 H81        33.2009   -4.0416   -3.6164 H         1 UNK         0.1312 
     82 H82        31.3322   -4.3737   -7.4568 H         1 UNK         0.1406 
     83 H83        29.1859   -5.5262   -3.9228 H         1 UNK         0.1631 
     84 H84        28.6800   -6.4114   -6.4974 H         1 UNK         0.0717 
     85 H85        29.1683   -5.2551   -7.7093 H         1 UNK         0.0717 
     86 H86        27.9791   -2.2420   -5.3387 H         1 UNK         0.0934 
     87 H87        29.1686   -2.6751   -6.5394 H         1 UNK         0.0934 
     88 H88        27.7092   -2.0673   -8.3884 H         1 UNK         0.0739 
     89 H89        25.5912   -2.3775   -6.6294 H         1 UNK         0.3093 
     90 H90        23.2819    0.0587   -7.5879 H         1 UNK         0.0818 
     91 H91        21.7555   -1.7721   -8.2584 H         1 UNK         0.0819 
     92 H92        22.9538   -1.5133   -9.5133 H         1 UNK         0.0819 
     93 H93        23.1130   -2.8870   -8.4277 H         1 UNK         0.0819 
     94 H94        22.7364   -2.1482   -6.0158 H         1 UNK         0.3041 
     95 H95        22.5867   -1.3745   -3.5029 H         1 UNK         0.0784 
     96 H96        23.2818   -3.6066   -4.4351 H         1 UNK         0.0793 
     97 H97        24.9488   -3.3161   -3.9491 H         1 UNK         0.0793 
     98 H98        23.6944   -3.5363   -2.7356 H         1 UNK         0.0793 
     99 H99        25.2529   -0.4389   -3.0298 H         1 UNK         0.3024 
    100 H100       25.1795    0.8379   -0.6571 H         1 UNK         0.1171 
    101 H101       24.1383   -0.1176    1.3650 H         1 UNK         0.0786 
    102 H102       25.1501   -1.5507    1.2635 H         1 UNK         0.0786 
    103 H103       25.8721    0.0201    1.6073 H         1 UNK         0.0786 
    104 H104       27.2622    0.1898   -1.1495 H         1 UNK         0.2977 
    105 H105       26.6236    0.1663   -5.8074 H         1 UNK         0.3127 
    106 H106       28.9638    1.8398   -5.8409 H         1 UNK         0.0770 
    107 H107       26.1416    2.3662   -4.7716 H         1 UNK         0.0814 
    108 H108       27.5751    3.3183   -4.4091 H         1 UNK         0.0814 
    109 H109       27.4767    1.6533   -3.8618 H         1 UNK         0.0814 
    110 H110       26.2240    1.6161   -7.9610 H         1 UNK         0.2983 
    111 H111       26.7464    4.3024   -9.1585 H         1 UNK         0.0947 
    112 H112       24.7004    3.8283  -10.4802 H         1 UNK         0.0806 
    113 H113       24.3590    3.7381   -8.7600 H         1 UNK         0.0806 
    114 H114       24.5228    2.2605   -9.7056 H         1 UNK         0.0806 
    115 H115       26.6210    0.7903   -9.9067 H         1 UNK         0.3000 
    116 H116       27.4377    1.0600  -12.6102 H         1 UNK         0.0850 
    117 H117       27.5773   -1.4315  -12.5219 H         1 UNK         0.0810 
    118 H118       26.1030   -0.8478  -11.7656 H         1 UNK         0.0810 
    119 H119       27.4501   -1.3894  -10.7684 H         1 UNK         0.0810 
    120 H120       29.3596    0.2494   -9.6731 H         1 UNK         0.3040 
    121 H121       31.8729    0.2905  -11.3080 H         1 UNK         0.0766 
    122 H122       31.0811   -1.6063   -9.0301 H         1 UNK         0.0812 
    123 H123       32.6127   -1.6145   -9.8945 H         1 UNK         0.0812 
    124 H124       31.1338   -2.0362  -10.7394 H         1 UNK         0.0812 
    125 H125       30.2639    1.9534   -8.9796 H         1 UNK         0.3205 
    126 H126       30.7383    3.5603   -7.5612 H         1 UNK         0.0754 
    127 H127       32.9365    4.6139   -7.3597 H         1 UNK         0.0769 
    128 H128       32.5913    4.2969   -9.0521 H         1 UNK         0.0769 
    129 H129       33.7196    3.2688   -8.1679 H         1 UNK         0.0769 
    130 H130       32.5437    0.5831   -7.1127 H         1 UNK         0.2981 
    131 H131       32.8998    0.8642   -4.2600 H         1 UNK         0.0541 
    132 H132       31.3548   -2.1503   -5.2126 H         1 UNK         0.3459 
    133 H133       29.9134   -1.8752   -4.2734 H         1 UNK         0.3459 
    134 H134       34.5515   -0.4441   -5.2774 H         1 UNK         0.0612 
    135 H135       33.5873   -1.5827   -4.3941 H         1 UNK         0.0612 
    136 H136       33.8905   -4.1770   -7.1440 H         1 UNK         0.0624 
    137 H137       34.5034   -3.6266   -5.6047 H         1 UNK         0.0624 
@<TRIPOS>BOND
     1    1    2 1    
     2    1   72 1    
     3    1   73 1    
     4    1   74 1    
     5    2    3 2    
     6    2    4 am   BACKBONE|DICT|INTERRES
     7    4    5 1    
     8    4   75 1    
     9    5    6 1    
    10    5   35 1    
    11    5   76 1    
    12    6    7 1    
    13    6   77 1    
    14    6   78 1    
    15    7    8 1    
    16    8    9 1    
    17    8   79 1    
    18    8   80 1    
    19    9   10 ar   
    20    9   14 ar   
    21   10   11 ar   
    22   10   81 1    
    23   11   12 ar   
    24   11   71 1    
    25   12   13 ar   
    26   12   82 1    
    27   13   14 ar   
    28   13   15 1    
    29   14   83 1    
    30   15   16 1    
    31   15   84 1    
    32   15   85 1    
    33   16   17 1    
    34   17   18 1    
    35   17   86 1    
    36   17   87 1    
    37   18   19 1    
    38   18   37 1    
    39   18   88 1    
    40   19   20 am   BACKBONE|DICT|INTERRES
    41   19   89 1    
    42   20   21 2    
    43   20   22 1    
    44   22   23 1    
    45   22   24 1    
    46   22   90 1    
    47   23   91 1    
    48   23   92 1    
    49   23   93 1    
    50   24   25 am   BACKBONE|DICT|INTERRES
    51   24   94 1    
    52   25   26 2    
    53   25   27 1    
    54   27   28 1    
    55   27   29 1    
    56   27   95 1    
    57   28   96 1    
    58   28   97 1    
    59   28   98 1    
    60   29   30 am   BACKBONE|DICT|INTERRES
    61   29   99 1    
    62   30   31 2    
    63   30   32 1    
    64   32   33 1    
    65   32   34 1    
    66   32  100 1    
    67   33  101 1    
    68   33  102 1    
    69   33  103 1    
    70   34   35 am   BACKBONE|DICT|INTERRES
    71   34  104 1    
    72   35   36 2    
    73   37   38 2    
    74   37   39 am   BACKBONE|DICT|INTERRES
    75   39   40 1    
    76   39  105 1    
    77   40   41 1    
    78   40   42 1    
    79   40  106 1    
    80   41  107 1    
    81   41  108 1    
    82   41  109 1    
    83   42   43 2    
    84   42   44 am   BACKBONE|DICT|INTERRES
    85   44   45 1    
    86   44  110 1    
    87   45   46 1    
    88   45   47 1    
    89   45  111 1    
    90   46  112 1    
    91   46  113 1    
    92   46  114 1    
    93   47   48 2    
    94   47   49 am   BACKBONE|DICT|INTERRES
    95   49   50 1    
    96   49  115 1    
    97   50   51 1    
    98   50   52 1    
    99   50  116 1    
   100   51  117 1    
   101   51  118 1    
   102   51  119 1    
   103   52   53 2    
   104   52   54 am   BACKBONE|DICT|INTERRES
   105   54   55 1    
   106   54  120 1    
   107   55   56 1    
   108   55   57 1    
   109   55  121 1    
   110   56  122 1    
   111   56  123 1    
   112   56  124 1    
   113   57   58 2    
   114   57   59 am   BACKBONE|DICT|INTERRES
   115   59   60 1    
   116   59  125 1    
   117   60   61 1    
   118   60   62 1    
   119   60  126 1    
   120   61  127 1    
   121   61  128 1    
   122   61  129 1    
   123   62   63 2    
   124   62   64 am   BACKBONE|DICT|INTERRES
   125   64   65 1    
   126   64  130 1    
   127   65   66 1    
   128   65   69 1    
   129   65  131 1    
   130   66   67 am   BACKBONE|DICT|INTERRES
   131   66   68 2    
   132   67  132 1    
   133   67  133 1    
   134   69   70 1    
   135   69  134 1    
   136   69  135 1    
   137   70   71 1    
   138   71  136 1    
   139   71  137 1    
@<TRIPOS>SUBSTRUCTURE
     1 UNK         1 GROUP             0       ****    0 ROOT    
