@<TRIPOS>MOLECULE
3R137
137   139    1
SMALL
USER_CHARGES


@<TRIPOS>ATOM
      1 CA         28.0243   -3.7081    2.3798 C.3       0 UNK        -0.2020 
      2 C          26.9066   -2.8033    1.8838 C.2       0 UNK         0.4855 
      3 O          25.8437   -2.7469    2.5022 O.2       0 UNK        -0.5197 
      4 N          27.1368   -2.0960    0.7693 N.am      1 UNK        -0.4892 
      5 CA         26.1726   -1.1821    0.1402 C.3       1 UNK         0.0835 
      6 C6         26.8874   -0.1277   -0.7465 C.3       12 UNK        -0.0855 
      7 S7         27.5276   -0.7494   -2.3399 S.3       12 UNK        -0.2931 
      8 C8         29.2233   -1.2767   -1.9176 C.3       12 UNK         0.0378 
      9 C9         29.9490   -1.7990   -3.1501 C.ar      12 UNK        -0.0802 
     10 C10        31.1585   -1.2349   -3.5669 C.ar      12 UNK        -0.0944 
     11 C11        31.7899   -1.6874   -4.7306 C.ar      12 UNK        -0.0787 
     12 C12        31.1889   -2.6955   -5.4931 C.ar      12 UNK        -0.0862 
     13 C13        29.9812   -3.2700   -5.0824 C.ar      12 UNK        -0.0733 
     14 C14        29.3920   -2.8437   -3.8903 C.ar      12 UNK        -0.0832 
     15 C15        29.3084   -4.3516   -5.9169 C.3       12 UNK         0.0240 
     16 S16        28.1939   -3.6608   -7.1875 S.3       12 UNK        -0.2522 
     17 C17        26.8246   -2.9494   -6.1979 C.3       12 UNK        -0.0967 
     18 CA         26.4988   -1.4405   -6.4007 C.3       5 UNK         0.0660 
     19 N          25.5686   -0.9658   -5.3638 N.am      5 UNK        -0.4015 
     20 C          25.0025    0.2525   -5.2998 C.2       4 UNK         0.4946 
     21 O          25.2441    1.1572   -6.1013 O.2       4 UNK        -0.5353 
     22 CA         24.0117    0.5060   -4.1421 C.3       4 UNK         0.0277 
     23 CB         23.1317    1.7539   -4.3670 C.3       4 UNK        -0.1981 
     24 N          23.1870   -0.6658   -3.8272 N.am      4 UNK        -0.4209 
     25 C          22.3934   -1.3472   -4.6717 C.2       3 UNK         0.4942 
     26 O          22.1226   -0.9657   -5.8116 O.2       3 UNK        -0.5208 
     27 CA         21.8259   -2.6977   -4.1791 C.3       3 UNK         0.0250 
     28 CB         21.7509   -3.7376   -5.3179 C.3       3 UNK        -0.1990 
     29 N          22.5254   -3.2738   -3.0202 N.am      3 UNK        -0.4232 
     30 C          23.8303   -3.5705   -2.9194 C.2       2 UNK         0.4993 
     31 O          24.6617   -3.3750   -3.8092 O.2       2 UNK        -0.5286 
     32 CA         24.2948   -4.1190   -1.5621 C.3       2 UNK         0.0209 
     33 CB         24.9594   -5.4955   -1.7304 C.3       2 UNK        -0.1931 
     34 N          25.2318   -3.2140   -0.8929 N.am      2 UNK        -0.4546 
     35 C          25.0305   -1.9182   -0.6016 C.2       1 UNK         0.5154 
     36 O          24.0017   -1.3023   -0.8905 O.2       1 UNK        -0.5181 
     37 C          27.7281   -0.5190   -6.6015 C.2       5 UNK         0.5014 
     38 O          28.1961   -0.3948   -7.7337 O.2       5 UNK        -0.5248 
     39 N          28.1575    0.1975   -5.5507 N.am      6 UNK        -0.4434 
     40 CA         29.1823    1.2484   -5.5918 C.3       6 UNK         0.0363 
     41 CB         29.3352    1.8680   -4.1928 C.3       6 UNK        -0.1936 
     42 C          28.9334    2.3727   -6.6180 C.2       6 UNK         0.5081 
     43 O          29.8956    2.9967   -7.0646 O.2       6 UNK        -0.5248 
     44 N          27.6649    2.6267   -6.9707 N.am      7 UNK        -0.4718 
     45 CA         27.2806    3.6030   -7.9923 C.3       7 UNK         0.0273 
     46 CB         25.8426    4.0734   -7.7175 C.3       7 UNK        -0.1935 
     47 C          27.4007    3.0573   -9.4279 C.2       7 UNK         0.5018 
     48 O          27.3962    3.8580  -10.3643 O.2       7 UNK        -0.5186 
     49 N          27.4757    1.7287   -9.5871 N.am      8 UNK        -0.4240 
     50 CA         27.5148    1.0411  -10.8789 C.3       8 UNK         0.0235 
     51 CB         26.4518   -0.0711  -10.8871 C.3       8 UNK        -0.2000 
     52 C          28.9023    0.4548  -11.1752 C.2       8 UNK         0.4941 
     53 O          29.3648    0.5532  -12.3130 O.2       8 UNK        -0.5273 
     54 N          29.5300   -0.1648  -10.1678 N.am      9 UNK        -0.4262 
     55 CA         30.8368   -0.8123  -10.2678 C.3       9 UNK         0.0264 
     56 CB         31.0388   -1.7125   -9.0387 C.3       9 UNK        -0.1955 
     57 C          31.9882    0.1981  -10.3840 C.2       9 UNK         0.5031 
     58 O          31.9195    1.2929   -9.8198 O.2       9 UNK        -0.5390 
     59 N          33.0594   -0.2167  -11.0703 N.am      10 UNK        -0.4204 
     60 CA         34.3186    0.5194  -11.1812 C.3       10 UNK         0.0237 
     61 CB         35.0080    0.1388  -12.5054 C.3       10 UNK        -0.1985 
     62 C          35.1976    0.2343   -9.9508 C.2       10 UNK         0.4970 
     63 O          36.1871   -0.4931  -10.0546 O.2       10 UNK        -0.4914 
     64 N          34.7891    0.7779   -8.7983 N.am      11 UNK        -0.4285 
     65 CA         35.4460    0.5876   -7.4935 C.3       11 UNK         0.1007 
     66 C          36.8649    1.2177   -7.3679 C.2       11 UNK         0.5703 
     67 N          37.2677    2.1343   -8.2406 N.am      11 UNK        -0.7361 
     68 O          37.6149    0.8631   -6.4614 O.2       11 UNK        -0.4986 
     69 C69        34.5454    1.0529   -6.3194 C.3       12 UNK        -0.0947 
     70 S70        32.8902    0.2880   -6.3185 S.3       12 UNK        -0.2240 
     71 C71        33.1227   -1.0869   -5.1540 C.3       12 UNK         0.0194 
     72 H72        28.9050   -3.6599    1.7396 H         1 UNK         0.0906 
     73 H73        28.3219   -3.4181    3.3872 H         1 UNK         0.0906 
     74 H74        27.6837   -4.7428    2.4102 H         1 UNK         0.0906 
     75 H75        28.0300   -2.1747    0.3067 H         1 UNK         0.3140 
     76 H76        25.6848   -0.6307    0.9478 H         1 UNK         0.1085 
     77 H77        27.6978    0.3475   -0.1912 H         1 UNK         0.0836 
     78 H78        26.1888    0.6791   -0.9758 H         1 UNK         0.0836 
     79 H79        29.7625   -0.4381   -1.4741 H         1 UNK         0.0731 
     80 H80        29.1929   -2.0671   -1.1683 H         1 UNK         0.0731 
     81 H81        31.6077   -0.4369   -2.9917 H         1 UNK         0.1312 
     82 H82        31.6605   -3.0314   -6.4063 H         1 UNK         0.1406 
     83 H83        28.4727   -3.2967   -3.5472 H         1 UNK         0.1631 
     84 H84        28.7485   -5.0358   -5.2773 H         1 UNK         0.0717 
     85 H85        30.0690   -4.9563   -6.4128 H         1 UNK         0.0717 
     86 H86        25.9302   -3.5329   -6.4226 H         1 UNK         0.0934 
     87 H87        27.0117   -3.1437   -5.1452 H         1 UNK         0.0934 
     88 H88        25.9446   -1.3695   -7.3389 H         1 UNK         0.0739 
     89 H89        25.2870   -1.6632   -4.6801 H         1 UNK         0.3093 
     90 H90        24.6252    0.6897   -3.2587 H         1 UNK         0.0818 
     91 H91        22.4573    1.9207   -3.5273 H         1 UNK         0.0819 
     92 H92        23.7442    2.6502   -4.4728 H         1 UNK         0.0819 
     93 H93        22.5285    1.6657   -5.2710 H         1 UNK         0.0819 
     94 H94        23.3331   -1.0561   -2.9015 H         1 UNK         0.3041 
     95 H95        20.8067   -2.4908   -3.8494 H         1 UNK         0.0784 
     96 H96        21.1154   -3.3871   -6.1322 H         1 UNK         0.0793 
     97 H97        22.7354   -3.9442   -5.7395 H         1 UNK         0.0793 
     98 H98        21.3315   -4.6808   -4.9678 H         1 UNK         0.0793 
     99 H99        21.9433   -3.4283   -2.2080 H         1 UNK         0.3024 
    100 H100       23.4284   -4.2358   -0.9076 H         1 UNK         0.1171 
    101 H101       24.2824   -6.1985   -2.2180 H         1 UNK         0.0786 
    102 H102       25.2334   -5.9264   -0.7672 H         1 UNK         0.0786 
    103 H103       25.8614   -5.4360   -2.3414 H         1 UNK         0.0786 
    104 H104       26.1224   -3.6075   -0.6292 H         1 UNK         0.2977 
    105 H105       27.7331    0.0200   -4.6501 H         1 UNK         0.3127 
    106 H106       30.1186    0.7625   -5.8641 H         1 UNK         0.0770 
    107 H107       28.4019    2.3128   -3.8455 H         1 UNK         0.0814 
    108 H108       30.0920    2.6537   -4.1940 H         1 UNK         0.0814 
    109 H109       29.6481    1.1311   -3.4576 H         1 UNK         0.0814 
    110 H110       26.9133    2.0708   -6.5681 H         1 UNK         0.2983 
    111 H111       27.9390    4.4715   -7.9180 H         1 UNK         0.0947 
    112 H112       25.5452    4.8521   -8.4210 H         1 UNK         0.0806 
    113 H113       25.7443    4.4882   -6.7142 H         1 UNK         0.0806 
    114 H114       25.1259    3.2569   -7.8142 H         1 UNK         0.0806 
    115 H115       27.5482    1.1429   -8.7609 H         1 UNK         0.3000 
    116 H116       27.2742    1.7366  -11.6859 H         1 UNK         0.0850 
    117 H117       26.4510   -0.6034  -11.8393 H         1 UNK         0.0810 
    118 H118       25.4515    0.3379  -10.7436 H         1 UNK         0.0810 
    119 H119       26.6274   -0.8072  -10.1012 H         1 UNK         0.0810 
    120 H120       29.0775   -0.2067   -9.2551 H         1 UNK         0.3040 
    121 H121       30.8344   -1.4410  -11.1608 H         1 UNK         0.0766 
    122 H122       30.3010   -2.5138   -9.0129 H         1 UNK         0.0812 
    123 H123       32.0248   -2.1786   -9.0405 H         1 UNK         0.0812 
    124 H124       30.9448   -1.1466   -8.1110 H         1 UNK         0.0812 
    125 H125       33.0497   -1.1454  -11.4680 H         1 UNK         0.3205 
    126 H126       34.1162    1.5926  -11.2083 H         1 UNK         0.0754 
    127 H127       35.9536    0.6708  -12.6191 H         1 UNK         0.0769 
    128 H128       34.3869    0.3984  -13.3630 H         1 UNK         0.0769 
    129 H129       35.2254   -0.9288  -12.5608 H         1 UNK         0.0769 
    130 H130       33.9260    1.3079   -8.7936 H         1 UNK         0.2981 
    131 H131       35.5926   -0.4879   -7.3768 H         1 UNK         0.0541 
    132 H132       36.6593    2.4339   -8.9850 H         1 UNK         0.3459 
    133 H133       38.1896    2.5311   -8.1497 H         1 UNK         0.3459 
    134 H134       34.4048    2.1343   -6.3636 H         1 UNK         0.0612 
    135 H135       35.0270    0.8534   -5.3603 H         1 UNK         0.0612 
    136 H136       33.7504   -1.8487   -5.6186 H         1 UNK         0.0624 
    137 H137       33.6624   -0.7348   -4.2737 H         1 UNK         0.0624 
@<TRIPOS>BOND
     1    1    2 1    
     2    1   72 1    
     3    1   73 1    
     4    1   74 1    
     5    2    3 2    
     6    2    4 am   BACKBONE|DICT|INTERRES
     7    4    5 1    
     8    4   75 1    
     9    5    6 1    
    10    5   35 1    
    11    5   76 1    
    12    6    7 1    
    13    6   77 1    
    14    6   78 1    
    15    7    8 1    
    16    8    9 1    
    17    8   79 1    
    18    8   80 1    
    19    9   10 ar   
    20    9   14 ar   
    21   10   11 ar   
    22   10   81 1    
    23   11   12 ar   
    24   11   71 1    
    25   12   13 ar   
    26   12   82 1    
    27   13   14 ar   
    28   13   15 1    
    29   14   83 1    
    30   15   16 1    
    31   15   84 1    
    32   15   85 1    
    33   16   17 1    
    34   17   18 1    
    35   17   86 1    
    36   17   87 1    
    37   18   19 1    
    38   18   37 1    
    39   18   88 1    
    40   19   20 am   BACKBONE|DICT|INTERRES
    41   19   89 1    
    42   20   21 2    
    43   20   22 1    
    44   22   23 1    
    45   22   24 1    
    46   22   90 1    
    47   23   91 1    
    48   23   92 1    
    49   23   93 1    
    50   24   25 am   BACKBONE|DICT|INTERRES
    51   24   94 1    
    52   25   26 2    
    53   25   27 1    
    54   27   28 1    
    55   27   29 1    
    56   27   95 1    
    57   28   96 1    
    58   28   97 1    
    59   28   98 1    
    60   29   30 am   BACKBONE|DICT|INTERRES
    61   29   99 1    
    62   30   31 2    
    63   30   32 1    
    64   32   33 1    
    65   32   34 1    
    66   32  100 1    
    67   33  101 1    
    68   33  102 1    
    69   33  103 1    
    70   34   35 am   BACKBONE|DICT|INTERRES
    71   34  104 1    
    72   35   36 2    
    73   37   38 2    
    74   37   39 am   BACKBONE|DICT|INTERRES
    75   39   40 1    
    76   39  105 1    
    77   40   41 1    
    78   40   42 1    
    79   40  106 1    
    80   41  107 1    
    81   41  108 1    
    82   41  109 1    
    83   42   43 2    
    84   42   44 am   BACKBONE|DICT|INTERRES
    85   44   45 1    
    86   44  110 1    
    87   45   46 1    
    88   45   47 1    
    89   45  111 1    
    90   46  112 1    
    91   46  113 1    
    92   46  114 1    
    93   47   48 2    
    94   47   49 am   BACKBONE|DICT|INTERRES
    95   49   50 1    
    96   49  115 1    
    97   50   51 1    
    98   50   52 1    
    99   50  116 1    
   100   51  117 1    
   101   51  118 1    
   102   51  119 1    
   103   52   53 2    
   104   52   54 am   BACKBONE|DICT|INTERRES
   105   54   55 1    
   106   54  120 1    
   107   55   56 1    
   108   55   57 1    
   109   55  121 1    
   110   56  122 1    
   111   56  123 1    
   112   56  124 1    
   113   57   58 2    
   114   57   59 am   BACKBONE|DICT|INTERRES
   115   59   60 1    
   116   59  125 1    
   117   60   61 1    
   118   60   62 1    
   119   60  126 1    
   120   61  127 1    
   121   61  128 1    
   122   61  129 1    
   123   62   63 2    
   124   62   64 am   BACKBONE|DICT|INTERRES
   125   64   65 1    
   126   64  130 1    
   127   65   66 1    
   128   65   69 1    
   129   65  131 1    
   130   66   67 am   BACKBONE|DICT|INTERRES
   131   66   68 2    
   132   67  132 1    
   133   67  133 1    
   134   69   70 1    
   135   69  134 1    
   136   69  135 1    
   137   70   71 1    
   138   71  136 1    
   139   71  137 1    
@<TRIPOS>SUBSTRUCTURE
     1 UNK         1 GROUP             0       ****    0 ROOT    
