@<TRIPOS>MOLECULE
3R137
137   139    1
SMALL
USER_CHARGES


@<TRIPOS>ATOM
      1 CA         29.6060    0.6895   -0.5706 C.3       0 UNK        -0.2020 
      2 C          29.0567   -0.5855   -1.1912 C.2       0 UNK         0.4855 
      3 O          28.7772   -0.6096   -2.3888 O.2       0 UNK        -0.5197 
      4 N          28.8960   -1.6448   -0.3885 N.am      1 UNK        -0.4892 
      5 CA         28.3959   -2.9564   -0.8140 C.3       1 UNK         0.0835 
      6 C6         28.8919   -4.1022    0.1112 C.3       12 UNK        -0.0855 
      7 S7         30.7053   -4.1853    0.3000 S.3       12 UNK        -0.2931 
      8 C8         31.1669   -5.4164   -0.9611 C.3       12 UNK         0.0378 
      9 C9         31.2483   -4.7854   -2.3422 C.ar      12 UNK        -0.0802 
     10 C10        32.3331   -3.9649   -2.6625 C.ar      12 UNK        -0.0944 
     11 C11        32.4182   -3.3544   -3.9156 C.ar      12 UNK        -0.0787 
     12 C12        31.4030   -3.5706   -4.8548 C.ar      12 UNK        -0.0862 
     13 C13        30.3207   -4.4052   -4.5537 C.ar      12 UNK        -0.0733 
     14 C14        30.2514   -5.0139   -3.2959 C.ar      12 UNK        -0.0832 
     15 C15        29.2384   -4.6733   -5.5926 C.3       12 UNK         0.0240 
     16 S16        27.6394   -3.9286   -5.1370 S.3       12 UNK        -0.2522 
     17 C17        27.9591   -2.1566   -5.4172 C.3       12 UNK        -0.0967 
     18 CA         27.1815   -1.5832   -6.6280 C.3       5 UNK         0.0660 
     19 N          25.7315   -1.7574   -6.5296 N.am      5 UNK        -0.4015 
     20 C          24.8837   -1.6483   -7.5635 C.2       4 UNK         0.4946 
     21 O          25.2417   -1.4928   -8.7312 O.2       4 UNK        -0.5353 
     22 CA         23.3784   -1.6976   -7.2447 C.3       4 UNK         0.0277 
     23 CB         22.8636   -3.1447   -7.3059 C.3       4 UNK        -0.1981 
     24 N          23.0438   -1.1165   -5.9418 N.am      4 UNK        -0.4209 
     25 C          23.1890    0.1782   -5.6211 C.2       3 UNK         0.4942 
     26 O          23.5648    1.0422   -6.4115 O.2       3 UNK        -0.5208 
     27 CA         22.9327    0.5584   -4.1513 C.3       3 UNK         0.0250 
     28 CB         21.4442    0.8646   -3.9228 C.3       3 UNK        -0.1990 
     29 N          23.3785   -0.4722   -3.2054 N.am      3 UNK        -0.4232 
     30 C          24.6437   -0.9007   -3.0973 C.2       2 UNK         0.4993 
     31 O          25.5795   -0.4391   -3.7553 O.2       2 UNK        -0.5286 
     32 CA         24.8838   -2.0946   -2.1704 C.3       2 UNK         0.0209 
     33 CB         24.3515   -3.3901   -2.8188 C.3       2 UNK        -0.1931 
     34 N          26.3156   -2.2203   -1.9026 N.am      2 UNK        -0.4546 
     35 C          26.8542   -2.9397   -0.9136 C.2       1 UNK         0.5154 
     36 O          26.1773   -3.5535   -0.0851 O.2       1 UNK        -0.5181 
     37 C          27.5053   -0.0940   -6.8262 C.2       5 UNK         0.5014 
     38 O          28.2193    0.2462   -7.7681 O.2       5 UNK        -0.5248 
     39 N          26.9495    0.7728   -5.9657 N.am      6 UNK        -0.4434 
     40 CA         27.1285    2.2288   -6.0027 C.3       6 UNK         0.0363 
     41 CB         26.3625    2.8725   -4.8379 C.3       6 UNK        -0.1936 
     42 C          26.7227    2.8665   -7.3440 C.2       6 UNK         0.5081 
     43 O          27.4438    3.7299   -7.8437 O.2       6 UNK        -0.5248 
     44 N          25.6258    2.3807   -7.9424 N.am      7 UNK        -0.4718 
     45 CA         25.1588    2.7530   -9.2834 C.3       7 UNK         0.0273 
     46 CB         23.7942    2.0942   -9.5410 C.3       7 UNK        -0.1935 
     47 C          26.1423    2.4025  -10.4184 C.2       7 UNK         0.5018 
     48 O          26.0985    3.0466  -11.4669 O.2       7 UNK        -0.5186 
     49 N          27.0180    1.4153  -10.1886 N.am      8 UNK        -0.4240 
     50 CA         28.0967    1.0030  -11.0886 C.3       8 UNK         0.0235 
     51 CB         28.1359   -0.5360  -11.1320 C.3       8 UNK        -0.2000 
     52 C          29.4601    1.5903  -10.6666 C.2       8 UNK         0.4941 
     53 O          30.4869    1.1209  -11.1587 O.2       8 UNK        -0.5273 
     54 N          29.4565    2.5904   -9.7689 N.am      9 UNK        -0.4262 
     55 CA         30.6161    3.2673   -9.1723 C.3       9 UNK         0.0264 
     56 CB         31.4836    3.9660  -10.2418 C.3       9 UNK        -0.1955 
     57 C          31.4348    2.3710   -8.2213 C.2       9 UNK         0.5031 
     58 O          32.6327    2.6077   -8.0396 O.2       9 UNK        -0.5390 
     59 N          30.7697    1.3824   -7.6038 N.am      10 UNK        -0.4204 
     60 CA         31.2900    0.4330   -6.6193 C.3       10 UNK         0.0237 
     61 CB         31.5743    1.1502   -5.2790 C.3       10 UNK        -0.1985 
     62 C          32.4659   -0.3757   -7.1909 C.2       10 UNK         0.4970 
     63 O          32.2408   -1.2329   -8.0460 O.2       10 UNK        -0.4914 
     64 N          33.6774   -0.0863   -6.7115 N.am      11 UNK        -0.4285 
     65 CA         34.9452   -0.6814   -7.1530 C.3       11 UNK         0.1007 
     66 C          35.9264    0.3948   -7.7047 C.2       11 UNK         0.5703 
     67 N          35.4832    1.6130   -8.0023 N.am      11 UNK        -0.7361 
     68 O          37.1108    0.1215   -7.8862 O.2       11 UNK        -0.4986 
     69 C69        35.5736   -1.5612   -6.0344 C.3       12 UNK        -0.0947 
     70 S70        34.5632   -3.0339   -5.6538 S.3       12 UNK        -0.2240 
     71 C71        33.5898   -2.4369   -4.2361 C.3       12 UNK         0.0194 
     72 H72        28.8880    1.5010   -0.6859 H         1 UNK         0.0906 
     73 H73        30.5304    0.9791   -1.0697 H         1 UNK         0.0906 
     74 H74        29.8167    0.5693    0.4919 H         1 UNK         0.0906 
     75 H75        29.1356   -1.5708    0.5901 H         1 UNK         0.3140 
     76 H76        28.7739   -3.1580   -1.8185 H         1 UNK         0.1085 
     77 H77        28.4752   -3.9857    1.1137 H         1 UNK         0.0836 
     78 H78        28.5272   -5.0658   -0.2498 H         1 UNK         0.0836 
     79 H79        30.4671   -6.2534   -0.9477 H         1 UNK         0.0731 
     80 H80        32.1411   -5.8338   -0.7021 H         1 UNK         0.0731 
     81 H81        33.1039   -3.7908   -1.9238 H         1 UNK         0.1312 
     82 H82        31.4669   -3.0977   -5.8255 H         1 UNK         0.1406 
     83 H83        29.4135   -5.6559   -3.0594 H         1 UNK         0.1631 
     84 H84        29.1048   -5.7511   -5.6945 H         1 UNK         0.0717 
     85 H85        29.5389   -4.3100   -6.5767 H         1 UNK         0.0717 
     86 H86        27.7004   -1.6275   -4.5020 H         1 UNK         0.0934 
     87 H87        29.0307   -2.0009   -5.5474 H         1 UNK         0.0934 
     88 H88        27.5234   -2.1129   -7.5202 H         1 UNK         0.0739 
     89 H89        25.3593   -1.8433   -5.5956 H         1 UNK         0.3093 
     90 H90        22.8619   -1.1161   -8.0117 H         1 UNK         0.0818 
     91 H91        23.0794   -3.5934   -8.2768 H         1 UNK         0.0819 
     92 H92        23.3294   -3.7738   -6.5462 H         1 UNK         0.0819 
     93 H93        21.7836   -3.1888   -7.1645 H         1 UNK         0.0819 
     94 H94        22.7118   -1.7508   -5.2305 H         1 UNK         0.3041 
     95 H95        23.5024    1.4656   -3.9418 H         1 UNK         0.0784 
     96 H96        21.0981    1.6430   -4.6047 H         1 UNK         0.0793 
     97 H97        20.8183   -0.0136   -4.0866 H         1 UNK         0.0793 
     98 H98        21.2636    1.2223   -2.9089 H         1 UNK         0.0793 
     99 H99        22.6645   -0.9011   -2.6334 H         1 UNK         0.3024 
    100 H100       24.3628   -1.9079   -1.2286 H         1 UNK         0.1171 
    101 H101       23.2842   -3.3212   -3.0317 H         1 UNK         0.0786 
    102 H102       24.8600   -3.6083   -3.7585 H         1 UNK         0.0786 
    103 H103       24.4859   -4.2507   -2.1637 H         1 UNK         0.0786 
    104 H104       26.9199   -1.6476   -2.4870 H         1 UNK         0.2977 
    105 H105       26.3909    0.4019   -5.1982 H         1 UNK         0.3127 
    106 H106       28.1931    2.4231   -5.8571 H         1 UNK         0.0770 
    107 H107       25.2867    2.7283   -4.9367 H         1 UNK         0.0814 
    108 H108       26.5449    3.9472   -4.7986 H         1 UNK         0.0814 
    109 H109       26.6709    2.4540   -3.8794 H         1 UNK         0.0814 
    110 H110       25.0481    1.7183   -7.4293 H         1 UNK         0.2983 
    111 H111       25.0257    3.8368   -9.2965 H         1 UNK         0.0947 
    112 H112       23.8598    1.0062   -9.4969 H         1 UNK         0.0806 
    113 H113       23.4085    2.3602  -10.5262 H         1 UNK         0.0806 
    114 H114       23.0544    2.4146   -8.8072 H         1 UNK         0.0806 
    115 H115       27.0123    0.9610   -9.2812 H         1 UNK         0.3000 
    116 H116       27.8953    1.3628  -12.0996 H         1 UNK         0.0850 
    117 H117       28.8655   -0.8913  -11.8607 H         1 UNK         0.0810 
    118 H118       27.1679   -0.9493  -11.4163 H         1 UNK         0.0810 
    119 H119       28.4076   -0.9603  -10.1649 H         1 UNK         0.0810 
    120 H120       28.5607    2.8925   -9.3994 H         1 UNK         0.3040 
    121 H121       30.1979    4.0511   -8.5391 H         1 UNK         0.0766 
    122 H122       32.0196    3.2484  -10.8634 H         1 UNK         0.0812 
    123 H123       32.2316    4.6094   -9.7769 H         1 UNK         0.0812 
    124 H124       30.8794    4.5944  -10.8960 H         1 UNK         0.0812 
    125 H125       29.8021    1.2106   -7.8703 H         1 UNK         0.3205 
    126 H126       30.4972   -0.2908   -6.4340 H         1 UNK         0.0754 
    127 H127       31.9032    0.4487   -4.5128 H         1 UNK         0.0769 
    128 H128       30.6692    1.6238   -4.8978 H         1 UNK         0.0769 
    129 H129       32.3329    1.9280   -5.3719 H         1 UNK         0.0769 
    130 H130       33.7618    0.6713   -6.0497 H         1 UNK         0.2981 
    131 H131       34.7596   -1.3302   -8.0105 H         1 UNK         0.0541 
    132 H132       36.1327    2.2933   -8.3630 H         1 UNK         0.3459 
    133 H133       34.4994    1.8530   -7.9246 H         1 UNK         0.3459 
    134 H134       35.7379   -0.9785   -5.1263 H         1 UNK         0.0612 
    135 H135       36.5545   -1.9285   -6.3404 H         1 UNK         0.0612 
    136 H136       33.2024   -1.4419   -4.4402 H         1 UNK         0.0624 
    137 H137       34.2542   -2.3353   -3.3766 H         1 UNK         0.0624 
@<TRIPOS>BOND
     1    1    2 1    
     2    1   72 1    
     3    1   73 1    
     4    1   74 1    
     5    2    3 2    
     6    2    4 am   BACKBONE|DICT|INTERRES
     7    4    5 1    
     8    4   75 1    
     9    5    6 1    
    10    5   35 1    
    11    5   76 1    
    12    6    7 1    
    13    6   77 1    
    14    6   78 1    
    15    7    8 1    
    16    8    9 1    
    17    8   79 1    
    18    8   80 1    
    19    9   10 ar   
    20    9   14 ar   
    21   10   11 ar   
    22   10   81 1    
    23   11   12 ar   
    24   11   71 1    
    25   12   13 ar   
    26   12   82 1    
    27   13   14 ar   
    28   13   15 1    
    29   14   83 1    
    30   15   16 1    
    31   15   84 1    
    32   15   85 1    
    33   16   17 1    
    34   17   18 1    
    35   17   86 1    
    36   17   87 1    
    37   18   19 1    
    38   18   37 1    
    39   18   88 1    
    40   19   20 am   BACKBONE|DICT|INTERRES
    41   19   89 1    
    42   20   21 2    
    43   20   22 1    
    44   22   23 1    
    45   22   24 1    
    46   22   90 1    
    47   23   91 1    
    48   23   92 1    
    49   23   93 1    
    50   24   25 am   BACKBONE|DICT|INTERRES
    51   24   94 1    
    52   25   26 2    
    53   25   27 1    
    54   27   28 1    
    55   27   29 1    
    56   27   95 1    
    57   28   96 1    
    58   28   97 1    
    59   28   98 1    
    60   29   30 am   BACKBONE|DICT|INTERRES
    61   29   99 1    
    62   30   31 2    
    63   30   32 1    
    64   32   33 1    
    65   32   34 1    
    66   32  100 1    
    67   33  101 1    
    68   33  102 1    
    69   33  103 1    
    70   34   35 am   BACKBONE|DICT|INTERRES
    71   34  104 1    
    72   35   36 2    
    73   37   38 2    
    74   37   39 am   BACKBONE|DICT|INTERRES
    75   39   40 1    
    76   39  105 1    
    77   40   41 1    
    78   40   42 1    
    79   40  106 1    
    80   41  107 1    
    81   41  108 1    
    82   41  109 1    
    83   42   43 2    
    84   42   44 am   BACKBONE|DICT|INTERRES
    85   44   45 1    
    86   44  110 1    
    87   45   46 1    
    88   45   47 1    
    89   45  111 1    
    90   46  112 1    
    91   46  113 1    
    92   46  114 1    
    93   47   48 2    
    94   47   49 am   BACKBONE|DICT|INTERRES
    95   49   50 1    
    96   49  115 1    
    97   50   51 1    
    98   50   52 1    
    99   50  116 1    
   100   51  117 1    
   101   51  118 1    
   102   51  119 1    
   103   52   53 2    
   104   52   54 am   BACKBONE|DICT|INTERRES
   105   54   55 1    
   106   54  120 1    
   107   55   56 1    
   108   55   57 1    
   109   55  121 1    
   110   56  122 1    
   111   56  123 1    
   112   56  124 1    
   113   57   58 2    
   114   57   59 am   BACKBONE|DICT|INTERRES
   115   59   60 1    
   116   59  125 1    
   117   60   61 1    
   118   60   62 1    
   119   60  126 1    
   120   61  127 1    
   121   61  128 1    
   122   61  129 1    
   123   62   63 2    
   124   62   64 am   BACKBONE|DICT|INTERRES
   125   64   65 1    
   126   64  130 1    
   127   65   66 1    
   128   65   69 1    
   129   65  131 1    
   130   66   67 am   BACKBONE|DICT|INTERRES
   131   66   68 2    
   132   67  132 1    
   133   67  133 1    
   134   69   70 1    
   135   69  134 1    
   136   69  135 1    
   137   70   71 1    
   138   71  136 1    
   139   71  137 1    
@<TRIPOS>SUBSTRUCTURE
     1 UNK         1 GROUP             0       ****    0 ROOT    
