@<TRIPOS>MOLECULE
3R137
137   139    1
SMALL
USER_CHARGES


@<TRIPOS>ATOM
      1 CA         24.3185   -5.6171   -4.8174 C.3       0 UNK        -0.2020 
      2 C          24.9867   -5.0970   -3.5542 C.2       0 UNK         0.4855 
      3 O          24.2998   -4.6154   -2.6530 O.2       0 UNK        -0.5197 
      4 N          26.3225   -5.1821   -3.4928 N.am      1 UNK        -0.4892 
      5 CA         27.1876   -4.7192   -2.3995 C.3       1 UNK         0.0835 
      6 C6         28.6662   -5.0393   -2.7326 C.3       12 UNK        -0.0855 
      7 S7         29.8260   -4.6821   -1.3690 S.3       12 UNK        -0.2931 
      8 C8         31.3110   -4.1469   -2.2848 C.3       12 UNK         0.0378 
      9 C9         31.0917   -2.8581   -3.0689 C.ar      12 UNK        -0.0802 
     10 C10        31.1307   -2.8644   -4.4686 C.ar      12 UNK        -0.0944 
     11 C11        30.9466   -1.6783   -5.1933 C.ar      12 UNK        -0.0787 
     12 C12        30.7277   -0.4888   -4.4970 C.ar      12 UNK        -0.0862 
     13 C13        30.6553   -0.4711   -3.1041 C.ar      12 UNK        -0.0733 
     14 C14        30.8527   -1.6579   -2.3933 C.ar      12 UNK        -0.0832 
     15 C15        30.3357    0.8198   -2.3674 C.3       12 UNK         0.0240 
     16 S16        28.5700    0.8771   -1.9316 S.3       12 UNK        -0.2522 
     17 C17        27.8900    2.1401   -3.0607 C.3       12 UNK        -0.0967 
     18 CA         27.8542    1.7533   -4.5626 C.3       5 UNK         0.0660 
     19 N          27.2847    0.4212   -4.8044 N.am      5 UNK        -0.4015 
     20 C          27.1828   -0.1764   -6.0023 C.2       4 UNK         0.4946 
     21 O          27.6303    0.3034   -7.0447 O.2       4 UNK        -0.5353 
     22 CA         26.3835   -1.4858   -6.0819 C.3       4 UNK         0.0277 
     23 CB         27.3197   -2.7029   -6.1523 C.3       4 UNK        -0.1981 
     24 N          25.4256   -1.6296   -4.9815 N.am      4 UNK        -0.4209 
     25 C          24.2965   -0.9105   -4.8675 C.2       3 UNK         0.4942 
     26 O          23.9544   -0.0578   -5.6872 O.2       3 UNK        -0.5208 
     27 CA         23.4128   -1.1494   -3.6302 C.3       3 UNK         0.0250 
     28 CB         22.2702   -2.1228   -3.9586 C.3       3 UNK        -0.1990 
     29 N          24.1737   -1.6486   -2.4824 N.am      3 UNK        -0.4232 
     30 C          24.9355   -0.8683   -1.7005 C.2       2 UNK         0.4993 
     31 O          24.9868    0.3566   -1.8108 O.2       2 UNK        -0.5286 
     32 CA         25.8137   -1.5637   -0.6411 C.3       2 UNK         0.0209 
     33 CB         25.0871   -1.6121    0.7124 C.3       2 UNK        -0.1931 
     34 N          26.2422   -2.9179   -1.0114 N.am      2 UNK        -0.4546 
     35 C          26.9529   -3.2205   -2.1075 C.2       1 UNK         0.5154 
     36 O          27.3392   -2.3772   -2.9155 O.2       1 UNK        -0.5181 
     37 C          27.1512    2.8689   -5.3689 C.2       5 UNK         0.5014 
     38 O          27.7986    3.8562   -5.7181 O.2       5 UNK        -0.5248 
     39 N          25.8527    2.6922   -5.6516 N.am      6 UNK        -0.4434 
     40 CA         25.0244    3.6244   -6.4166 C.3       6 UNK         0.0363 
     41 CB         23.6258    3.6610   -5.7755 C.3       6 UNK        -0.1936 
     42 C          24.9222    3.2593   -7.9105 C.2       6 UNK         0.5081 
     43 O          24.2662    3.9959   -8.6487 O.2       6 UNK        -0.5248 
     44 N          25.5285    2.1418   -8.3354 N.am      7 UNK        -0.4718 
     45 CA         25.4364    1.6111   -9.6955 C.3       7 UNK         0.0273 
     46 CB         24.6687    0.2745   -9.6728 C.3       7 UNK        -0.1935 
     47 C          26.8392    1.4921  -10.3032 C.2       7 UNK         0.5018 
     48 O          27.2668    2.4043  -11.0114 O.2       7 UNK        -0.5186 
     49 N          27.5264    0.3758  -10.0246 N.am      8 UNK        -0.4240 
     50 CA         28.8806    0.0820  -10.5003 C.3       8 UNK         0.0235 
     51 CB         29.1996   -1.4000  -10.2491 C.3       8 UNK        -0.2000 
     52 C          29.9524    0.9880   -9.8726 C.2       8 UNK         0.4941 
     53 O          30.9256    1.3184  -10.5521 O.2       8 UNK        -0.5273 
     54 N          29.7477    1.3788   -8.6054 N.am      9 UNK        -0.4262 
     55 CA         30.5065    2.3437   -7.7970 C.3       9 UNK         0.0264 
     56 CB         30.4130    3.7592   -8.3972 C.3       9 UNK        -0.1955 
     57 C          31.9684    1.9683   -7.4916 C.2       9 UNK         0.5031 
     58 O          32.3695    2.0399   -6.3301 O.2       9 UNK        -0.5390 
     59 N          32.7363    1.5918   -8.5189 N.am      10 UNK        -0.4204 
     60 CA         34.1478    1.2233   -8.4259 C.3       10 UNK         0.0237 
     61 CB         34.8457    1.5062   -9.7678 C.3       10 UNK        -0.1985 
     62 C          34.3327   -0.2396   -7.9972 C.2       10 UNK         0.4970 
     63 O          34.9876   -0.4889   -6.9844 O.2       10 UNK        -0.4914 
     64 N          33.7610   -1.1692   -8.7792 N.am      11 UNK        -0.4285 
     65 CA         33.9208   -2.6302   -8.6421 C.3       11 UNK         0.1007 
     66 C          35.4081   -3.0960   -8.7660 C.2       11 UNK         0.5703 
     67 N          35.7668   -4.2701   -8.2625 N.am      11 UNK        -0.7361 
     68 O          36.2386   -2.4261   -9.3787 O.2       11 UNK        -0.4986 
     69 C69        33.1607   -3.2010   -7.4047 C.3       12 UNK        -0.0947 
     70 S70        31.3523   -3.1304   -7.6206 S.3       12 UNK        -0.2240 
     71 C71        30.9359   -1.6041   -6.7196 C.3       12 UNK         0.0194 
     72 H72        24.0047   -4.7852   -5.4472 H         1 UNK         0.0906 
     73 H73        24.9875   -6.2510   -5.3991 H         1 UNK         0.0906 
     74 H74        23.4368   -6.2045   -4.5624 H         1 UNK         0.0906 
     75 H75        26.8131   -5.5823   -4.2796 H         1 UNK         0.3140 
     76 H76        26.9138   -5.2896   -1.5094 H         1 UNK         0.1085 
     77 H77        28.9685   -4.4998   -3.6312 H         1 UNK         0.0836 
     78 H78        28.7705   -6.0985   -2.9735 H         1 UNK         0.0836 
     79 H79        31.6308   -4.9546   -2.9452 H         1 UNK         0.0731 
     80 H80        32.1252   -3.9945   -1.5749 H         1 UNK         0.0731 
     81 H81        31.2991   -3.7989   -4.9834 H         1 UNK         0.1312 
     82 H82        30.5979    0.4274   -5.0518 H         1 UNK         0.1406 
     83 H83        30.7958   -1.6532   -1.3133 H         1 UNK         0.1631 
     84 H84        30.6120    1.6897   -2.9650 H         1 UNK         0.0717 
     85 H85        30.9278    0.8761   -1.4528 H         1 UNK         0.0717 
     86 H86        26.8797    2.3579   -2.7070 H         1 UNK         0.0934 
     87 H87        28.4579    3.0622   -2.9205 H         1 UNK         0.0934 
     88 H88        28.8805    1.7267   -4.9197 H         1 UNK         0.0739 
     89 H89        26.9563   -0.0768   -3.9872 H         1 UNK         0.3093 
     90 H90        25.8104   -1.4617   -7.0097 H         1 UNK         0.0818 
     91 H91        28.0326   -2.7226   -5.3281 H         1 UNK         0.0819 
     92 H92        26.7621   -3.6389   -6.1423 H         1 UNK         0.0819 
     93 H93        27.9025   -2.6865   -7.0737 H         1 UNK         0.0819 
     94 H94        25.7158   -2.2219   -4.2127 H         1 UNK         0.3041 
     95 H95        22.9641   -0.1906   -3.3603 H         1 UNK         0.0784 
     96 H96        21.6614   -1.7444   -4.7810 H         1 UNK         0.0793 
     97 H97        22.6417   -3.1032   -4.2546 H         1 UNK         0.0793 
     98 H98        21.6087   -2.2602   -3.1031 H         1 UNK         0.0793 
     99 H99        24.1877   -2.6556   -2.3405 H         1 UNK         0.3024 
    100 H100       26.7147   -0.9582   -0.5253 H         1 UNK         0.1171 
    101 H101       25.7325   -2.0092    1.4961 H         1 UNK         0.0786 
    102 H102       24.7787   -0.6133    1.0249 H         1 UNK         0.0786 
    103 H103       24.1902   -2.2313    0.6673 H         1 UNK         0.0786 
    104 H104       25.9127   -3.6710   -0.4245 H         1 UNK         0.2977 
    105 H105       25.3987    1.8375   -5.3550 H         1 UNK         0.3127 
    106 H106       25.4484    4.6291   -6.3591 H         1 UNK         0.0770 
    107 H107       23.1327    2.6893   -5.8292 H         1 UNK         0.0814 
    108 H108       22.9807    4.3821   -6.2792 H         1 UNK         0.0814 
    109 H109       23.6772    3.9540   -4.7267 H         1 UNK         0.0814 
    110 H110       26.1174    1.6263   -7.6916 H         1 UNK         0.2983 
    111 H111       24.8804    2.2943  -10.3415 H         1 UNK         0.0947 
    112 H112       24.6463   -0.1827  -10.6631 H         1 UNK         0.0806 
    113 H113       23.6338    0.4277   -9.3662 H         1 UNK         0.0806 
    114 H114       25.1069   -0.4466   -8.9845 H         1 UNK         0.0806 
    115 H115       27.1170   -0.2905   -9.3863 H         1 UNK         0.3000 
    116 H116       28.9033    0.2562  -11.5784 H         1 UNK         0.0850 
    117 H117       30.2246   -1.6381  -10.5374 H         1 UNK         0.0810 
    118 H118       28.5428   -2.0484  -10.8291 H         1 UNK         0.0810 
    119 H119       29.0847   -1.6657   -9.1988 H         1 UNK         0.0810 
    120 H120       28.9305    0.9909   -8.1345 H         1 UNK         0.3040 
    121 H121       29.9936    2.3743   -6.8365 H         1 UNK         0.0766 
    122 H122       29.3740    4.0737   -8.4990 H         1 UNK         0.0812 
    123 H123       30.8797    3.8194   -9.3808 H         1 UNK         0.0812 
    124 H124       30.9095    4.4881   -7.7553 H         1 UNK         0.0812 
    125 H125       32.2832    1.5332   -9.4313 H         1 UNK         0.3205 
    126 H126       34.6237    1.8515   -7.6694 H         1 UNK         0.0754 
    127 H127       35.8954    1.2108   -9.7319 H         1 UNK         0.0769 
    128 H128       34.8174    2.5691  -10.0087 H         1 UNK         0.0769 
    129 H129       34.3821    0.9664  -10.5944 H         1 UNK         0.0769 
    130 H130       33.2622   -0.8636   -9.6007 H         1 UNK         0.2981 
    131 H131       33.4512   -3.0493   -9.5326 H         1 UNK         0.0541 
    132 H132       35.1042   -4.8556   -7.7798 H         1 UNK         0.3459 
    133 H133       36.7219   -4.5747   -8.3678 H         1 UNK         0.3459 
    134 H134       33.3892   -4.2547   -7.2461 H         1 UNK         0.0612 
    135 H135       33.4542   -2.6891   -6.4872 H         1 UNK         0.0612 
    136 H136       31.6162   -0.8193   -7.0413 H         1 UNK         0.0624 
    137 H137       29.9414   -1.2898   -7.0332 H         1 UNK         0.0624 
@<TRIPOS>BOND
     1    1    2 1    
     2    1   72 1    
     3    1   73 1    
     4    1   74 1    
     5    2    3 2    
     6    2    4 am   BACKBONE|DICT|INTERRES
     7    4    5 1    
     8    4   75 1    
     9    5    6 1    
    10    5   35 1    
    11    5   76 1    
    12    6    7 1    
    13    6   77 1    
    14    6   78 1    
    15    7    8 1    
    16    8    9 1    
    17    8   79 1    
    18    8   80 1    
    19    9   10 ar   
    20    9   14 ar   
    21   10   11 ar   
    22   10   81 1    
    23   11   12 ar   
    24   11   71 1    
    25   12   13 ar   
    26   12   82 1    
    27   13   14 ar   
    28   13   15 1    
    29   14   83 1    
    30   15   16 1    
    31   15   84 1    
    32   15   85 1    
    33   16   17 1    
    34   17   18 1    
    35   17   86 1    
    36   17   87 1    
    37   18   19 1    
    38   18   37 1    
    39   18   88 1    
    40   19   20 am   BACKBONE|DICT|INTERRES
    41   19   89 1    
    42   20   21 2    
    43   20   22 1    
    44   22   23 1    
    45   22   24 1    
    46   22   90 1    
    47   23   91 1    
    48   23   92 1    
    49   23   93 1    
    50   24   25 am   BACKBONE|DICT|INTERRES
    51   24   94 1    
    52   25   26 2    
    53   25   27 1    
    54   27   28 1    
    55   27   29 1    
    56   27   95 1    
    57   28   96 1    
    58   28   97 1    
    59   28   98 1    
    60   29   30 am   BACKBONE|DICT|INTERRES
    61   29   99 1    
    62   30   31 2    
    63   30   32 1    
    64   32   33 1    
    65   32   34 1    
    66   32  100 1    
    67   33  101 1    
    68   33  102 1    
    69   33  103 1    
    70   34   35 am   BACKBONE|DICT|INTERRES
    71   34  104 1    
    72   35   36 2    
    73   37   38 2    
    74   37   39 am   BACKBONE|DICT|INTERRES
    75   39   40 1    
    76   39  105 1    
    77   40   41 1    
    78   40   42 1    
    79   40  106 1    
    80   41  107 1    
    81   41  108 1    
    82   41  109 1    
    83   42   43 2    
    84   42   44 am   BACKBONE|DICT|INTERRES
    85   44   45 1    
    86   44  110 1    
    87   45   46 1    
    88   45   47 1    
    89   45  111 1    
    90   46  112 1    
    91   46  113 1    
    92   46  114 1    
    93   47   48 2    
    94   47   49 am   BACKBONE|DICT|INTERRES
    95   49   50 1    
    96   49  115 1    
    97   50   51 1    
    98   50   52 1    
    99   50  116 1    
   100   51  117 1    
   101   51  118 1    
   102   51  119 1    
   103   52   53 2    
   104   52   54 am   BACKBONE|DICT|INTERRES
   105   54   55 1    
   106   54  120 1    
   107   55   56 1    
   108   55   57 1    
   109   55  121 1    
   110   56  122 1    
   111   56  123 1    
   112   56  124 1    
   113   57   58 2    
   114   57   59 am   BACKBONE|DICT|INTERRES
   115   59   60 1    
   116   59  125 1    
   117   60   61 1    
   118   60   62 1    
   119   60  126 1    
   120   61  127 1    
   121   61  128 1    
   122   61  129 1    
   123   62   63 2    
   124   62   64 am   BACKBONE|DICT|INTERRES
   125   64   65 1    
   126   64  130 1    
   127   65   66 1    
   128   65   69 1    
   129   65  131 1    
   130   66   67 am   BACKBONE|DICT|INTERRES
   131   66   68 2    
   132   67  132 1    
   133   67  133 1    
   134   69   70 1    
   135   69  134 1    
   136   69  135 1    
   137   70   71 1    
   138   71  136 1    
   139   71  137 1    
@<TRIPOS>SUBSTRUCTURE
     1 UNK         1 GROUP             0       ****    0 ROOT    
