@<TRIPOS>MOLECULE
3R137
137   139    1
SMALL
USER_CHARGES


@<TRIPOS>ATOM
      1 CA         25.9104   -2.5682    2.8204 C.3       0 UNK        -0.2020 
      2 C          25.8888   -2.9597    1.3507 C.2       0 UNK         0.4855 
      3 O          25.0682   -3.7879    0.9541 O.2       0 UNK        -0.5197 
      4 N          26.7726   -2.3567    0.5424 N.am      1 UNK        -0.4892 
      5 CA         26.9902   -2.5701   -0.9013 C.3       1 UNK         0.0835 
      6 C6         27.3389   -4.0339   -1.2892 C.3       12 UNK        -0.0855 
      7 S7         28.7804   -4.6825   -0.3732 S.3       12 UNK        -0.2931 
      8 C8         29.9348   -5.1232   -1.7202 C.3       12 UNK         0.0378 
      9 C9         30.5281   -3.9449   -2.4953 C.ar      12 UNK        -0.0802 
     10 C10        30.9635   -4.1564   -3.8082 C.ar      12 UNK        -0.0944 
     11 C11        31.5495   -3.1227   -4.5440 C.ar      12 UNK        -0.0787 
     12 C12        31.7130   -1.8707   -3.9490 C.ar      12 UNK        -0.0862 
     13 C13        31.2413   -1.6216   -2.6579 C.ar      12 UNK        -0.0733 
     14 C14        30.6751   -2.6714   -1.9280 C.ar      12 UNK        -0.0832 
     15 C15        31.3234   -0.2251   -2.0407 C.3       12 UNK         0.0240 
     16 S16        30.9872    1.1486   -3.2074 S.3       12 UNK        -0.2522 
     17 C17        29.4080    0.6549   -3.9842 C.3       12 UNK        -0.0967 
     18 CA         29.5859    0.2900   -5.4911 C.3       5 UNK         0.0660 
     19 N          28.7118   -0.8111   -5.8992 N.am      5 UNK        -0.4015 
     20 C          27.3776   -0.7649   -5.9841 C.2       4 UNK         0.4946 
     21 O          26.7098    0.2537   -5.7793 O.2       4 UNK        -0.5353 
     22 CA         26.6749   -2.0797   -6.3581 C.3       4 UNK         0.0277 
     23 CB         27.2782   -3.3081   -5.6414 C.3       4 UNK        -0.1981 
     24 N          25.2665   -1.9436   -6.0115 N.am      4 UNK        -0.4209 
     25 C          24.2396   -2.6173   -6.5395 C.2       3 UNK         0.4942 
     26 O          24.3607   -3.4551   -7.4353 O.2       3 UNK        -0.5208 
     27 CA         22.8427   -2.2900   -5.9653 C.3       3 UNK         0.0250 
     28 CB         21.8154   -3.4180   -6.2035 C.3       3 UNK        -0.1990 
     29 N          22.8777   -1.8982   -4.5464 N.am      3 UNK        -0.4232 
     30 C          23.3215   -2.6391   -3.5187 C.2       2 UNK         0.4993 
     31 O          23.6732   -3.8182   -3.6079 O.2       2 UNK        -0.5286 
     32 CA         23.3838   -1.9352   -2.1526 C.3       2 UNK         0.0209 
     33 CB         22.1489   -2.2820   -1.3053 C.3       2 UNK        -0.1931 
     34 N          24.5920   -2.3062   -1.4139 N.am      2 UNK        -0.4546 
     35 C          25.8474   -2.0191   -1.7812 C.2       1 UNK         0.5154 
     36 O          26.1238   -1.3254   -2.7602 O.2       1 UNK        -0.5181 
     37 C          29.5142    1.4865   -6.4634 C.2       5 UNK         0.5014 
     38 O          29.2341    1.2909   -7.6498 O.2       5 UNK        -0.5248 
     39 N          29.7768    2.7000   -5.9596 N.am      6 UNK        -0.4434 
     40 CA         29.7832    3.9574   -6.7141 C.3       6 UNK         0.0363 
     41 CB         30.2038    5.1040   -5.7815 C.3       6 UNK        -0.1936 
     42 C          28.4503    4.2921   -7.4088 C.2       6 UNK         0.5081 
     43 O          28.4688    4.9630   -8.4397 O.2       6 UNK        -0.5248 
     44 N          27.3287    3.7909   -6.8705 N.am      7 UNK        -0.4718 
     45 CA         25.9942    3.9098   -7.4666 C.3       7 UNK         0.0273 
     46 CB         24.9380    3.4593   -6.4449 C.3       7 UNK        -0.1935 
     47 C          25.8454    3.1211   -8.7811 C.2       7 UNK         0.5018 
     48 O          25.0948    3.5512   -9.6574 O.2       7 UNK        -0.5186 
     49 N          26.5716    2.0015   -8.9011 N.am      8 UNK        -0.4240 
     50 CA         26.6479    1.1759  -10.1096 C.3       8 UNK         0.0235 
     51 CB         26.6317   -0.3027   -9.6868 C.3       8 UNK        -0.2000 
     52 C          27.9099    1.4705  -10.9427 C.2       8 UNK         0.4941 
     53 O          28.0486    0.9060  -12.0283 O.2       8 UNK        -0.5273 
     54 N          28.8169    2.3045  -10.4088 N.am      9 UNK        -0.4262 
     55 CA         30.1867    2.5626  -10.8710 C.3       9 UNK         0.0264 
     56 CB         30.1896    3.2804  -12.2374 C.3       9 UNK        -0.1955 
     57 C          31.0645    1.2923  -10.8471 C.2       9 UNK         0.5031 
     58 O          31.9105    1.1100  -11.7256 O.2       9 UNK        -0.5390 
     59 N          30.8386    0.4329   -9.8456 N.am      10 UNK        -0.4204 
     60 CA         31.5291   -0.8396   -9.6491 C.3       10 UNK         0.0237 
     61 CB         30.4932   -1.8913   -9.2178 C.3       10 UNK        -0.1985 
     62 C          32.6284   -0.6959   -8.5873 C.2       10 UNK         0.4970 
     63 O          32.5178    0.1551   -7.7020 O.2       10 UNK        -0.4914 
     64 N          33.6460   -1.5632   -8.6797 N.am      11 UNK        -0.4285 
     65 CA         34.8208   -1.6331   -7.7866 C.3       11 UNK         0.1007 
     66 C          35.7571   -0.3843   -7.8422 C.2       11 UNK         0.5703 
     67 N          35.6731    0.4614   -8.8628 N.am      11 UNK        -0.7361 
     68 O          36.6016   -0.1939   -6.9699 O.2       11 UNK        -0.4986 
     69 C69        34.4615   -2.0523   -6.3290 C.3       12 UNK        -0.0947 
     70 S70        33.7067   -3.7128   -6.2208 S.3       12 UNK        -0.2240 
     71 C71        31.9400   -3.3393   -5.9996 C.3       12 UNK         0.0194 
     72 H72        26.1057   -3.4448    3.4376 H         1 UNK         0.0906 
     73 H73        26.6782   -1.8252    3.0353 H         1 UNK         0.0906 
     74 H74        24.9459   -2.1539    3.1125 H         1 UNK         0.0906 
     75 H75        27.3883   -1.6670    0.9511 H         1 UNK         0.3140 
     76 H76        27.8611   -1.9611   -1.1491 H         1 UNK         0.1085 
     77 H77        27.5405   -4.1015   -2.3595 H         1 UNK         0.0836 
     78 H78        26.4918   -4.6969   -1.1057 H         1 UNK         0.0836 
     79 H79        29.4206   -5.8009   -2.4039 H         1 UNK         0.0731 
     80 H80        30.7592   -5.6922   -1.2888 H         1 UNK         0.0731 
     81 H81        30.8436   -5.1309   -4.2623 H         1 UNK         0.1312 
     82 H82        32.1733   -1.0687   -4.5038 H         1 UNK         0.1406 
     83 H83        30.3465   -2.4904   -0.9143 H         1 UNK         0.1631 
     84 H84        32.3189   -0.0882   -1.6169 H         1 UNK         0.0717 
     85 H85        30.6201   -0.1389   -1.2109 H         1 UNK         0.0717 
     86 H86        29.0146   -0.2022   -3.4346 H         1 UNK         0.0934 
     87 H87        28.6577    1.4345   -3.8388 H         1 UNK         0.0934 
     88 H88        30.5896   -0.0975   -5.6477 H         1 UNK         0.0739 
     89 H89        29.1737   -1.6854   -6.0940 H         1 UNK         0.3093 
     90 H90        26.7638   -2.2135   -7.4373 H         1 UNK         0.0818 
     91 H91        28.2920   -3.5192   -5.9824 H         1 UNK         0.0819 
     92 H92        27.3158   -3.1595   -4.5620 H         1 UNK         0.0819 
     93 H93        26.6908   -4.2070   -5.8295 H         1 UNK         0.0819 
     94 H94        25.0885   -1.2258   -5.3193 H         1 UNK         0.3041 
     95 H95        22.4960   -1.4127   -6.5134 H         1 UNK         0.0784 
     96 H96        21.6827   -3.6075   -7.2694 H         1 UNK         0.0793 
     97 H97        22.1294   -4.3561   -5.7449 H         1 UNK         0.0793 
     98 H98        20.8377   -3.1569   -5.7985 H         1 UNK         0.0793 
     99 H99        22.5962   -0.9453   -4.3588 H         1 UNK         0.3024 
    100 H100       23.4109   -0.8545   -2.3092 H         1 UNK         0.1171 
    101 H101       21.2293   -1.9966   -1.8179 H         1 UNK         0.0786 
    102 H102       22.0902   -3.3519   -1.1002 H         1 UNK         0.0786 
    103 H103       22.1632   -1.7580   -0.3494 H         1 UNK         0.0786 
    104 H104       24.4791   -2.9053   -0.5999 H         1 UNK         0.2977 
    105 H105       30.0321    2.7571   -4.9827 H         1 UNK         0.3127 
    106 H106       30.5382    3.8594   -7.4970 H         1 UNK         0.0770 
    107 H107       29.5026    5.2307   -4.9556 H         1 UNK         0.0814 
    108 H108       30.2454    6.0511   -6.3216 H         1 UNK         0.0814 
    109 H109       31.1941    4.9313   -5.3596 H         1 UNK         0.0814 
    110 H110       27.4047    3.2336   -6.0312 H         1 UNK         0.2983 
    111 H111       25.8210    4.9636   -7.6967 H         1 UNK         0.0947 
    112 H112       23.9317    3.5630   -6.8532 H         1 UNK         0.0806 
    113 H113       24.9813    4.0606   -5.5367 H         1 UNK         0.0806 
    114 H114       25.0684    2.4137   -6.1627 H         1 UNK         0.0806 
    115 H115       27.1737    1.7280   -8.1319 H         1 UNK         0.3000 
    116 H116       25.7812    1.3602  -10.7478 H         1 UNK         0.0850 
    117 H117       26.6144   -0.9595  -10.5575 H         1 UNK         0.0810 
    118 H118       25.7509   -0.5356   -9.0880 H         1 UNK         0.0810 
    119 H119       27.5170   -0.5593   -9.1041 H         1 UNK         0.0810 
    120 H120       28.5900    2.7014   -9.5074 H         1 UNK         0.3040 
    121 H121       30.6263    3.2444  -10.1415 H         1 UNK         0.0766 
    122 H122       29.8255    2.6342  -13.0366 H         1 UNK         0.0812 
    123 H123       31.1973    3.5958  -12.5101 H         1 UNK         0.0812 
    124 H124       29.5657    4.1739  -12.2166 H         1 UNK         0.0812 
    125 H125       30.1960    0.7119   -9.1053 H         1 UNK         0.3205 
    126 H126       31.9850   -1.1661  -10.5863 H         1 UNK         0.0754 
    127 H127       29.7255   -2.0219   -9.9810 H         1 UNK         0.0769 
    128 H128       29.9939   -1.6076   -8.2921 H         1 UNK         0.0769 
    129 H129       30.9592   -2.8648   -9.0588 H         1 UNK         0.0769 
    130 H130       33.6473   -2.2288   -9.4391 H         1 UNK         0.2981 
    131 H131       35.4372   -2.4330   -8.1979 H         1 UNK         0.0541 
    132 H132       36.2915    1.2564   -8.8950 H         1 UNK         0.3459 
    133 H133       34.9971    0.3169   -9.5950 H         1 UNK         0.3459 
    134 H134       33.8203   -1.3050   -5.8679 H         1 UNK         0.0612 
    135 H135       35.3598   -2.0907   -5.7108 H         1 UNK         0.0612 
    136 H136       31.6717   -2.4603   -6.5824 H         1 UNK         0.0624 
    137 H137       31.3616   -4.1636   -6.4193 H         1 UNK         0.0624 
@<TRIPOS>BOND
     1    1    2 1    
     2    1   72 1    
     3    1   73 1    
     4    1   74 1    
     5    2    3 2    
     6    2    4 am   BACKBONE|DICT|INTERRES
     7    4    5 1    
     8    4   75 1    
     9    5    6 1    
    10    5   35 1    
    11    5   76 1    
    12    6    7 1    
    13    6   77 1    
    14    6   78 1    
    15    7    8 1    
    16    8    9 1    
    17    8   79 1    
    18    8   80 1    
    19    9   10 ar   
    20    9   14 ar   
    21   10   11 ar   
    22   10   81 1    
    23   11   12 ar   
    24   11   71 1    
    25   12   13 ar   
    26   12   82 1    
    27   13   14 ar   
    28   13   15 1    
    29   14   83 1    
    30   15   16 1    
    31   15   84 1    
    32   15   85 1    
    33   16   17 1    
    34   17   18 1    
    35   17   86 1    
    36   17   87 1    
    37   18   19 1    
    38   18   37 1    
    39   18   88 1    
    40   19   20 am   BACKBONE|DICT|INTERRES
    41   19   89 1    
    42   20   21 2    
    43   20   22 1    
    44   22   23 1    
    45   22   24 1    
    46   22   90 1    
    47   23   91 1    
    48   23   92 1    
    49   23   93 1    
    50   24   25 am   BACKBONE|DICT|INTERRES
    51   24   94 1    
    52   25   26 2    
    53   25   27 1    
    54   27   28 1    
    55   27   29 1    
    56   27   95 1    
    57   28   96 1    
    58   28   97 1    
    59   28   98 1    
    60   29   30 am   BACKBONE|DICT|INTERRES
    61   29   99 1    
    62   30   31 2    
    63   30   32 1    
    64   32   33 1    
    65   32   34 1    
    66   32  100 1    
    67   33  101 1    
    68   33  102 1    
    69   33  103 1    
    70   34   35 am   BACKBONE|DICT|INTERRES
    71   34  104 1    
    72   35   36 2    
    73   37   38 2    
    74   37   39 am   BACKBONE|DICT|INTERRES
    75   39   40 1    
    76   39  105 1    
    77   40   41 1    
    78   40   42 1    
    79   40  106 1    
    80   41  107 1    
    81   41  108 1    
    82   41  109 1    
    83   42   43 2    
    84   42   44 am   BACKBONE|DICT|INTERRES
    85   44   45 1    
    86   44  110 1    
    87   45   46 1    
    88   45   47 1    
    89   45  111 1    
    90   46  112 1    
    91   46  113 1    
    92   46  114 1    
    93   47   48 2    
    94   47   49 am   BACKBONE|DICT|INTERRES
    95   49   50 1    
    96   49  115 1    
    97   50   51 1    
    98   50   52 1    
    99   50  116 1    
   100   51  117 1    
   101   51  118 1    
   102   51  119 1    
   103   52   53 2    
   104   52   54 am   BACKBONE|DICT|INTERRES
   105   54   55 1    
   106   54  120 1    
   107   55   56 1    
   108   55   57 1    
   109   55  121 1    
   110   56  122 1    
   111   56  123 1    
   112   56  124 1    
   113   57   58 2    
   114   57   59 am   BACKBONE|DICT|INTERRES
   115   59   60 1    
   116   59  125 1    
   117   60   61 1    
   118   60   62 1    
   119   60  126 1    
   120   61  127 1    
   121   61  128 1    
   122   61  129 1    
   123   62   63 2    
   124   62   64 am   BACKBONE|DICT|INTERRES
   125   64   65 1    
   126   64  130 1    
   127   65   66 1    
   128   65   69 1    
   129   65  131 1    
   130   66   67 am   BACKBONE|DICT|INTERRES
   131   66   68 2    
   132   67  132 1    
   133   67  133 1    
   134   69   70 1    
   135   69  134 1    
   136   69  135 1    
   137   70   71 1    
   138   71  136 1    
   139   71  137 1    
@<TRIPOS>SUBSTRUCTURE
     1 UNK         1 GROUP             0       ****    0 ROOT    
