@<TRIPOS>MOLECULE
3R137
137   139    1
SMALL
USER_CHARGES


@<TRIPOS>ATOM
      1 CA         24.7955   -6.2053   -0.6739 C.3       0 UNK        -0.2020 
      2 C          25.6156   -5.0088   -1.1335 C.2       0 UNK         0.4855 
      3 O          26.2147   -5.0638   -2.2059 O.2       0 UNK        -0.5197 
      4 N          25.6528   -3.9455   -0.3182 N.am      1 UNK        -0.4892 
      5 CA         26.2783   -2.6403   -0.5810 C.3       1 UNK         0.0835 
      6 C6         27.7426   -2.7345   -1.0958 C.3       12 UNK        -0.0855 
      7 S7         28.8206   -1.4010   -0.4680 S.3       12 UNK        -0.2931 
      8 C8         30.4777   -2.1304   -0.7043 C.3       12 UNK         0.0378 
      9 C9         30.8619   -2.2126   -2.1764 C.ar      12 UNK        -0.0802 
     10 C10        31.6664   -1.2276   -2.7605 C.ar      12 UNK        -0.0944 
     11 C11        31.9950   -1.2962   -4.1189 C.ar      12 UNK        -0.0787 
     12 C12        31.5045   -2.3493   -4.8965 C.ar      12 UNK        -0.0862 
     13 C13        30.7132   -3.3444   -4.3202 C.ar      12 UNK        -0.0733 
     14 C14        30.4116   -3.2798   -2.9584 C.ar      12 UNK        -0.0832 
     15 C15        30.1865   -4.5014   -5.1513 C.3       12 UNK         0.0240 
     16 S16        28.4122   -4.3044   -5.5021 S.3       12 UNK        -0.2522 
     17 C17        28.4051   -3.4856   -7.1380 C.3       12 UNK        -0.0967 
     18 CA         27.5588   -2.1794   -7.2235 C.3       5 UNK         0.0660 
     19 N          26.2432   -2.2673   -6.5694 N.am      5 UNK        -0.4015 
     20 C          25.2925   -3.1355   -6.9492 C.2       4 UNK         0.4946 
     21 O          25.3755   -3.8443   -7.9542 O.2       4 UNK        -0.5353 
     22 CA         24.0428   -3.2758   -6.0616 C.3       4 UNK         0.0277 
     23 CB         24.2811   -4.3367   -4.9777 C.3       4 UNK        -0.1981 
     24 N          23.6137   -2.0336   -5.4240 N.am      4 UNK        -0.4209 
     25 C          23.1130   -0.9780   -6.0782 C.2       3 UNK         0.4942 
     26 O          22.9609   -0.9395   -7.2996 O.2       3 UNK        -0.5208 
     27 CA         22.6940    0.2421   -5.2387 C.3       3 UNK         0.0250 
     28 CB         21.1680    0.2537   -5.0492 C.3       3 UNK        -0.1990 
     29 N          23.3321    0.3668   -3.9233 N.am      3 UNK        -0.4232 
     30 C          24.6451    0.3752   -3.6522 C.2       2 UNK         0.4993 
     31 O          25.5246    0.1829   -4.4959 O.2       2 UNK        -0.5286 
     32 CA         25.0529    0.6513   -2.1914 C.3       2 UNK         0.0209 
     33 CB         23.8801    1.0705   -1.2738 C.3       2 UNK        -0.1931 
     34 N          25.7882   -0.4643   -1.5828 N.am      2 UNK        -0.4546 
     35 C          25.3819   -1.7366   -1.4601 C.2       1 UNK         0.5154 
     36 O          24.3392   -2.1737   -1.9574 O.2       1 UNK        -0.5181 
     37 C          28.3772   -0.9441   -6.8066 C.2       5 UNK         0.5014 
     38 O          29.1249   -0.4229   -7.6394 O.2       5 UNK        -0.5248 
     39 N          28.2337   -0.4694   -5.5611 N.am      6 UNK        -0.4434 
     40 CA         28.9440    0.7132   -5.0646 C.3       6 UNK         0.0363 
     41 CB         28.8169    0.8021   -3.5392 C.3       6 UNK        -0.1936 
     42 C          28.4514    2.0070   -5.7275 C.2       6 UNK         0.5081 
     43 O          29.2707    2.8188   -6.1553 O.2       6 UNK        -0.5248 
     44 N          27.1246    2.1491   -5.8589 N.am      7 UNK        -0.4718 
     45 CA         26.4743    3.2773   -6.5382 C.3       7 UNK         0.0273 
     46 CB         24.9658    3.2401   -6.2611 C.3       7 UNK        -0.1935 
     47 C          26.7291    3.2960   -8.0561 C.2       7 UNK         0.5018 
     48 O          26.7111    4.3677   -8.6613 O.2       7 UNK        -0.5186 
     49 N          26.9865    2.1140   -8.6334 N.am      8 UNK        -0.4240 
     50 CA         27.4058    1.9294  -10.0242 C.3       8 UNK         0.0235 
     51 CB         27.0714    0.4923  -10.4599 C.3       8 UNK        -0.2000 
     52 C          28.9019    2.2294  -10.2453 C.2       8 UNK         0.4941 
     53 O          29.3380    2.2359  -11.3970 O.2       8 UNK        -0.5273 
     54 N          29.6553    2.4596   -9.1569 N.am      9 UNK        -0.4262 
     55 CA         31.0926    2.7350   -9.1030 C.3       9 UNK         0.0264 
     56 CB         31.4246    4.0848   -9.7746 C.3       9 UNK        -0.1955 
     57 C          31.9467    1.5689   -9.6311 C.2       9 UNK         0.5031 
     58 O          32.9593    1.8040  -10.2944 O.2       9 UNK        -0.5390 
     59 N          31.5554    0.3272   -9.2989 N.am      10 UNK        -0.4204 
     60 CA         32.2582   -0.9012   -9.6993 C.3       10 UNK         0.0237 
     61 CB         31.4316   -2.1213   -9.2687 C.3       10 UNK        -0.1985 
     62 C          33.7026   -1.0125   -9.1686 C.2       10 UNK         0.4970 
     63 O          34.5046   -1.7403   -9.7548 O.2       10 UNK        -0.4914 
     64 N          34.0090   -0.2774   -8.0926 N.am      11 UNK        -0.4285 
     65 CA         35.3603   -0.0889   -7.5456 C.3       11 UNK         0.1007 
     66 C          36.2675    0.8513   -8.3952 C.2       11 UNK         0.5703 
     67 N          35.7597    1.5630   -9.3962 N.am      11 UNK        -0.7361 
     68 O          37.4679    0.9289   -8.1444 O.2       11 UNK        -0.4986 
     69 C69        35.3085    0.3748   -6.0648 C.3       12 UNK        -0.0947 
     70 S70        34.5720   -0.8842   -4.9727 S.3       12 UNK        -0.2240 
     71 C71        32.8841   -0.2430   -4.7577 C.3       12 UNK         0.0194 
     72 H72        24.0064   -6.4156   -1.3954 H         1 UNK         0.0906 
     73 H73        25.4303   -7.0876   -0.5966 H         1 UNK         0.0906 
     74 H74        24.3306   -6.0356    0.2971 H         1 UNK         0.0906 
     75 H75        25.1136   -3.9815    0.5362 H         1 UNK         0.3140 
     76 H76        26.2989   -2.1619    0.3999 H         1 UNK         0.1085 
     77 H77        28.1838   -3.6767   -0.7675 H         1 UNK         0.0836 
     78 H78        27.7741   -2.7520   -2.1872 H         1 UNK         0.0836 
     79 H79        31.2054   -1.5236   -0.1634 H         1 UNK         0.0731 
     80 H80        30.5145   -3.1212   -0.2489 H         1 UNK         0.0731 
     81 H81        32.0319   -0.4061   -2.1596 H         1 UNK         0.1312 
     82 H82        31.7568   -2.4011   -5.9454 H         1 UNK         0.1406 
     83 H83        29.8036   -4.0562   -2.5153 H         1 UNK         0.1631 
     84 H84        30.3282   -5.4305   -4.5973 H         1 UNK         0.0717 
     85 H85        30.7520   -4.6161   -6.0772 H         1 UNK         0.0717 
     86 H86        29.4273   -3.3106   -7.4729 H         1 UNK         0.0934 
     87 H87        28.0083   -4.2130   -7.8473 H         1 UNK         0.0934 
     88 H88        27.3473   -2.0155   -8.2822 H         1 UNK         0.0739 
     89 H89        26.0650   -1.6586   -5.7812 H         1 UNK         0.3093 
     90 H90        23.2260   -3.6208   -6.6994 H         1 UNK         0.0818 
     91 H91        23.3820   -4.5199   -4.3894 H         1 UNK         0.0819 
     92 H92        24.5834   -5.2883   -5.4171 H         1 UNK         0.0819 
     93 H93        25.0725   -4.0291   -4.2940 H         1 UNK         0.0819 
     94 H94        23.7098   -1.9750   -4.4181 H         1 UNK         0.3041 
     95 H95        22.9600    1.1282   -5.8117 H         1 UNK         0.0784 
     96 H96        20.6528    0.1926   -6.0092 H         1 UNK         0.0793 
     97 H97        20.8307   -0.5893   -4.4446 H         1 UNK         0.0793 
     98 H98        20.8334    1.1713   -4.5650 H         1 UNK         0.0793 
     99 H99        22.7042    0.5006   -3.1440 H         1 UNK         0.3024 
    100 H100       25.7408    1.4967   -2.2340 H         1 UNK         0.1171 
    101 H101       23.3622    1.9482   -1.6636 H         1 UNK         0.0786 
    102 H102       24.2420    1.3374   -0.2806 H         1 UNK         0.0786 
    103 H103       23.1459    0.2736   -1.1476 H         1 UNK         0.0786 
    104 H104       26.6859   -0.2275   -1.1793 H         1 UNK         0.2977 
    105 H105       27.6041   -0.9179   -4.9124 H         1 UNK         0.3127 
    106 H106       30.0016    0.5942   -5.3073 H         1 UNK         0.0770 
    107 H107       27.7987    1.0236   -3.2278 H         1 UNK         0.0814 
    108 H108       29.4596    1.5872   -3.1396 H         1 UNK         0.0814 
    109 H109       29.1122   -0.1325   -3.0686 H         1 UNK         0.0814 
    110 H110       26.5222    1.4302   -5.4621 H         1 UNK         0.2983 
    111 H111       26.8814    4.2011   -6.1208 H         1 UNK         0.0947 
    112 H112       24.4787    4.1388   -6.6421 H         1 UNK         0.0806 
    113 H113       24.7508    3.1809   -5.1941 H         1 UNK         0.0806 
    114 H114       24.5015    2.3876   -6.7549 H         1 UNK         0.0806 
    115 H115       26.9898    1.2935   -8.0457 H         1 UNK         0.3000 
    116 H116       26.8383    2.6184  -10.6537 H         1 UNK         0.0850 
    117 H117       27.2707    0.3534  -11.5234 H         1 UNK         0.0810 
    118 H118       26.0194    0.2579  -10.2958 H         1 UNK         0.0810 
    119 H119       27.6706   -0.2426   -9.9229 H         1 UNK         0.0810 
    120 H120       29.2019    2.4288   -8.2508 H         1 UNK         0.3040 
    121 H121       31.3400    2.8300   -8.0448 H         1 UNK         0.0766 
    122 H122       32.4685    4.3559   -9.6117 H         1 UNK         0.0812 
    123 H123       30.8144    4.8908   -9.3672 H         1 UNK         0.0812 
    124 H124       31.2633    4.0526  -10.8526 H         1 UNK         0.0812 
    125 H125       30.7048    0.2069   -8.7537 H         1 UNK         0.3205 
    126 H126       32.3182   -0.8992  -10.7896 H         1 UNK         0.0754 
    127 H127       31.9014   -3.0505   -9.5942 H         1 UNK         0.0769 
    128 H128       30.4298   -2.0953   -9.6983 H         1 UNK         0.0769 
    129 H129       31.3322   -2.1659   -8.1856 H         1 UNK         0.0769 
    130 H130       33.2859    0.2961   -7.6901 H         1 UNK         0.2981 
    131 H131       35.8563   -1.0613   -7.5657 H         1 UNK         0.0541 
    132 H132       36.3734    2.1573   -9.9298 H         1 UNK         0.3459 
    133 H133       34.7739    1.5212   -9.6357 H         1 UNK         0.3459 
    134 H134       34.7651    1.3166   -5.9690 H         1 UNK         0.0612 
    135 H135       36.3146    0.5664   -5.6871 H         1 UNK         0.0612 
    136 H136       32.9140    0.6626   -4.1498 H         1 UNK         0.0624 
    137 H137       32.4674    0.0425   -5.7239 H         1 UNK         0.0624 
@<TRIPOS>BOND
     1    1    2 1    
     2    1   72 1    
     3    1   73 1    
     4    1   74 1    
     5    2    3 2    
     6    2    4 am   BACKBONE|DICT|INTERRES
     7    4    5 1    
     8    4   75 1    
     9    5    6 1    
    10    5   35 1    
    11    5   76 1    
    12    6    7 1    
    13    6   77 1    
    14    6   78 1    
    15    7    8 1    
    16    8    9 1    
    17    8   79 1    
    18    8   80 1    
    19    9   10 ar   
    20    9   14 ar   
    21   10   11 ar   
    22   10   81 1    
    23   11   12 ar   
    24   11   71 1    
    25   12   13 ar   
    26   12   82 1    
    27   13   14 ar   
    28   13   15 1    
    29   14   83 1    
    30   15   16 1    
    31   15   84 1    
    32   15   85 1    
    33   16   17 1    
    34   17   18 1    
    35   17   86 1    
    36   17   87 1    
    37   18   19 1    
    38   18   37 1    
    39   18   88 1    
    40   19   20 am   BACKBONE|DICT|INTERRES
    41   19   89 1    
    42   20   21 2    
    43   20   22 1    
    44   22   23 1    
    45   22   24 1    
    46   22   90 1    
    47   23   91 1    
    48   23   92 1    
    49   23   93 1    
    50   24   25 am   BACKBONE|DICT|INTERRES
    51   24   94 1    
    52   25   26 2    
    53   25   27 1    
    54   27   28 1    
    55   27   29 1    
    56   27   95 1    
    57   28   96 1    
    58   28   97 1    
    59   28   98 1    
    60   29   30 am   BACKBONE|DICT|INTERRES
    61   29   99 1    
    62   30   31 2    
    63   30   32 1    
    64   32   33 1    
    65   32   34 1    
    66   32  100 1    
    67   33  101 1    
    68   33  102 1    
    69   33  103 1    
    70   34   35 am   BACKBONE|DICT|INTERRES
    71   34  104 1    
    72   35   36 2    
    73   37   38 2    
    74   37   39 am   BACKBONE|DICT|INTERRES
    75   39   40 1    
    76   39  105 1    
    77   40   41 1    
    78   40   42 1    
    79   40  106 1    
    80   41  107 1    
    81   41  108 1    
    82   41  109 1    
    83   42   43 2    
    84   42   44 am   BACKBONE|DICT|INTERRES
    85   44   45 1    
    86   44  110 1    
    87   45   46 1    
    88   45   47 1    
    89   45  111 1    
    90   46  112 1    
    91   46  113 1    
    92   46  114 1    
    93   47   48 2    
    94   47   49 am   BACKBONE|DICT|INTERRES
    95   49   50 1    
    96   49  115 1    
    97   50   51 1    
    98   50   52 1    
    99   50  116 1    
   100   51  117 1    
   101   51  118 1    
   102   51  119 1    
   103   52   53 2    
   104   52   54 am   BACKBONE|DICT|INTERRES
   105   54   55 1    
   106   54  120 1    
   107   55   56 1    
   108   55   57 1    
   109   55  121 1    
   110   56  122 1    
   111   56  123 1    
   112   56  124 1    
   113   57   58 2    
   114   57   59 am   BACKBONE|DICT|INTERRES
   115   59   60 1    
   116   59  125 1    
   117   60   61 1    
   118   60   62 1    
   119   60  126 1    
   120   61  127 1    
   121   61  128 1    
   122   61  129 1    
   123   62   63 2    
   124   62   64 am   BACKBONE|DICT|INTERRES
   125   64   65 1    
   126   64  130 1    
   127   65   66 1    
   128   65   69 1    
   129   65  131 1    
   130   66   67 am   BACKBONE|DICT|INTERRES
   131   66   68 2    
   132   67  132 1    
   133   67  133 1    
   134   69   70 1    
   135   69  134 1    
   136   69  135 1    
   137   70   71 1    
   138   71  136 1    
   139   71  137 1    
@<TRIPOS>SUBSTRUCTURE
     1 UNK         1 GROUP             0       ****    0 ROOT    
