@<TRIPOS>MOLECULE
3R137
137   139    1
SMALL
USER_CHARGES


@<TRIPOS>ATOM
      1 CA         28.9464   -0.1464   -1.1038 C.3       0 UNK        -0.2020 
      2 C          29.4252   -0.7537    0.2123 C.2       0 UNK         0.4855 
      3 O          29.9835   -0.0336    1.0372 O.2       0 UNK        -0.5197 
      4 N          29.2507   -2.0600    0.4588 N.am      1 UNK        -0.4892 
      5 CA         28.5262   -3.0369   -0.3618 C.3       1 UNK         0.0835 
      6 C6         28.8683   -4.4801    0.0826 C.3       12 UNK        -0.0855 
      7 S7         28.5987   -5.7244   -1.2240 S.3       12 UNK        -0.2931 
      8 C8         30.2108   -5.7459   -2.0797 C.3       12 UNK         0.0378 
      9 C9         30.2290   -4.7596   -3.2379 C.ar      12 UNK        -0.0802 
     10 C10        30.8244   -3.4996   -3.1031 C.ar      12 UNK        -0.0944 
     11 C11        30.7820   -2.5794   -4.1565 C.ar      12 UNK        -0.0787 
     12 C12        30.1503   -2.9386   -5.3509 C.ar      12 UNK        -0.0862 
     13 C13        29.5872   -4.2062   -5.5120 C.ar      12 UNK        -0.0733 
     14 C14        29.6306   -5.1132   -4.4510 C.ar      12 UNK        -0.0832 
     15 C15        28.9375   -4.5896   -6.8349 C.3       12 UNK         0.0240 
     16 S16        27.1652   -4.9836   -6.6817 S.3       12 UNK        -0.2522 
     17 C17        26.4838   -3.5068   -5.8583 C.3       12 UNK        -0.0967 
     18 CA         26.1396   -2.3573   -6.8413 C.3       5 UNK         0.0660 
     19 N          24.9052   -1.6732   -6.4595 N.am      5 UNK        -0.4015 
     20 C          24.1864   -0.8790   -7.2639 C.2       4 UNK         0.4946 
     21 O          24.4462   -0.6851   -8.4515 O.2       4 UNK        -0.5353 
     22 CA         22.9879   -0.1577   -6.6224 C.3       4 UNK         0.0277 
     23 CB         21.7173   -1.0149   -6.7376 C.3       4 UNK        -0.1981 
     24 N          23.2182    0.1925   -5.2163 N.am      4 UNK        -0.4209 
     25 C          24.1214    1.0951   -4.8078 C.2       3 UNK         0.4942 
     26 O          24.8278    1.7485   -5.5741 O.2       3 UNK        -0.5208 
     27 CA         24.3006    1.2649   -3.2902 C.3       3 UNK         0.0250 
     28 CB         23.2438    2.2284   -2.7267 C.3       3 UNK        -0.1990 
     29 N          24.2782    0.0073   -2.5315 N.am      3 UNK        -0.4232 
     30 C          25.1308   -1.0108   -2.7103 C.2       2 UNK         0.4993 
     31 O          25.9638   -1.0604   -3.6198 O.2       2 UNK        -0.5286 
     32 CA         25.0360   -2.1810   -1.7256 C.3       2 UNK         0.0209 
     33 CB         24.1546   -3.3023   -2.2982 C.3       2 UNK        -0.1931 
     34 N          26.3905   -2.6878   -1.5132 N.am      2 UNK        -0.4546 
     35 C          27.0115   -2.7467   -0.3304 C.2       1 UNK         0.5154 
     36 O          26.4541   -2.5460    0.7516 O.2       1 UNK        -0.5181 
     37 C          27.2892   -1.3407   -6.9672 C.2       5 UNK         0.5014 
     38 O          27.9944   -1.3391   -7.9755 O.2       5 UNK        -0.5248 
     39 N          27.4282   -0.4637   -5.9619 N.am      6 UNK        -0.4434 
     40 CA         28.4174    0.6160   -5.9107 C.3       6 UNK         0.0363 
     41 CB         28.3162    1.3339   -4.5570 C.3       6 UNK        -0.1936 
     42 C          28.2894    1.6288   -7.0598 C.2       6 UNK         0.5081 
     43 O          29.3079    2.1358   -7.5244 O.2       6 UNK        -0.5248 
     44 N          27.0525    1.8953   -7.5009 N.am      7 UNK        -0.4718 
     45 CA         26.7465    2.7389   -8.6575 C.3       7 UNK         0.0273 
     46 CB         25.2505    3.0918   -8.6433 C.3       7 UNK        -0.1935 
     47 C          27.1331    2.0949  -10.0017 C.2       7 UNK         0.5018 
     48 O          27.4709    2.8228  -10.9363 O.2       7 UNK        -0.5186 
     49 N          27.0598    0.7592  -10.0867 N.am      8 UNK        -0.4240 
     50 CA         27.4331   -0.0139  -11.2731 C.3       8 UNK         0.0235 
     51 CB         26.6774   -1.3534  -11.2693 C.3       8 UNK        -0.2000 
     52 C          28.9511   -0.2439  -11.3567 C.2       8 UNK         0.4941 
     53 O          29.5191   -0.1565  -12.4467 O.2       8 UNK        -0.5273 
     54 N          29.5714   -0.5492  -10.2109 N.am      9 UNK        -0.4262 
     55 CA         31.0079   -0.7742  -10.0506 C.3       9 UNK         0.0264 
     56 CB         31.2206   -1.5510   -8.7407 C.3       9 UNK        -0.1955 
     57 C          31.8209    0.5341  -10.0426 C.2       9 UNK         0.5031 
     58 O          31.2600    1.6308  -10.0607 O.2       9 UNK        -0.5390 
     59 N          33.1494    0.3872   -9.9680 N.am      10 UNK        -0.4204 
     60 CA         34.1176    1.4800   -9.8313 C.3       10 UNK         0.0237 
     61 CB         35.3687    1.1368  -10.6631 C.3       10 UNK        -0.1985 
     62 C          34.4661    1.7776   -8.3557 C.2       10 UNK         0.4970 
     63 O          35.5722    2.2472   -8.0817 O.2       10 UNK        -0.4914 
     64 N          33.5437    1.4846   -7.4282 N.am      11 UNK        -0.4285 
     65 CA         33.6842    1.7359   -5.9848 C.3       11 UNK         0.1007 
     66 C          33.7790    3.2494   -5.6430 C.2       11 UNK         0.5703 
     67 N          34.5094    3.6021   -4.5935 N.am      11 UNK        -0.7361 
     68 O          33.1686    4.0981   -6.2908 O.2       11 UNK        -0.4986 
     69 C69        32.5423    1.0687   -5.1741 C.3       12 UNK        -0.0947 
     70 S70        32.5234   -0.7460   -5.3379 S.3       12 UNK        -0.2240 
     71 C71        31.3730   -1.1835   -3.9936 C.3       12 UNK         0.0194 
     72 H72        27.8729    0.0377   -1.0748 H         1 UNK         0.0906 
     73 H73        29.4418    0.8082   -1.2808 H         1 UNK         0.0906 
     74 H74        29.1709   -0.7881   -1.9531 H         1 UNK         0.0906 
     75 H75        29.5596   -2.4097    1.3547 H         1 UNK         0.3140 
     76 H76        28.8699   -2.9193   -1.3876 H         1 UNK         0.1085 
     77 H77        28.2918   -4.7659    0.9650 H         1 UNK         0.0836 
     78 H78        29.9129   -4.5434    0.3918 H         1 UNK         0.0836 
     79 H79        31.0236   -5.5437   -1.3809 H         1 UNK         0.0731 
     80 H80        30.3888   -6.7524   -2.4616 H         1 UNK         0.0731 
     81 H81        31.2955   -3.2270   -2.1683 H         1 UNK         0.1312 
     82 H82        30.1020   -2.2273   -6.1613 H         1 UNK         0.1406 
     83 H83        29.1768   -6.0889   -4.5634 H         1 UNK         0.1631 
     84 H84        29.4548   -5.4586   -7.2433 H         1 UNK         0.0717 
     85 H85        29.0540   -3.7959   -7.5725 H         1 UNK         0.0717 
     86 H86        25.5741   -3.8563   -5.3694 H         1 UNK         0.0934 
     87 H87        27.1301   -3.1830   -5.0404 H         1 UNK         0.0934 
     88 H88        25.9701   -2.7827   -7.8333 H         1 UNK         0.0739 
     89 H89        24.6551   -1.7166   -5.4825 H         1 UNK         0.3093 
     90 H90        22.8274    0.7688   -7.1785 H         1 UNK         0.0818 
     91 H91        20.8436   -0.4823   -6.3613 H         1 UNK         0.0819 
     92 H92        21.5140   -1.2709   -7.7786 H         1 UNK         0.0819 
     93 H93        21.8060   -1.9503   -6.1837 H         1 UNK         0.0819 
     94 H94        22.6702   -0.2928   -4.5208 H         1 UNK         0.3041 
     95 H95        25.2826    1.7158   -3.1329 H         1 UNK         0.0784 
     96 H96        23.2543    3.1772   -3.2654 H         1 UNK         0.0793 
     97 H97        22.2362    1.8189   -2.8077 H         1 UNK         0.0793 
     98 H98        23.4317    2.4540   -1.6768 H         1 UNK         0.0793 
     99 H99        23.6119   -0.0442   -1.7738 H         1 UNK         0.3024 
    100 H100       24.6017   -1.8227   -0.7892 H         1 UNK         0.1171 
    101 H101       23.1399   -2.9489   -2.4861 H         1 UNK         0.0786 
    102 H102       24.0821   -4.1376   -1.6015 H         1 UNK         0.0786 
    103 H103       24.5476   -3.6893   -3.2381 H         1 UNK         0.0786 
    104 H104       26.9271   -2.8119   -2.3614 H         1 UNK         0.2977 
    105 H105       26.8240   -0.5638   -5.1472 H         1 UNK         0.3127 
    106 H106       29.4032    0.1555   -5.9899 H         1 UNK         0.0770 
    107 H107       27.3801    1.8847   -4.4636 H         1 UNK         0.0814 
    108 H108       29.1302    2.0490   -4.4327 H         1 UNK         0.0814 
    109 H109       28.3675    0.6290   -3.7301 H         1 UNK         0.0814 
    110 H110       26.2632    1.5202   -6.9835 H         1 UNK         0.2983 
    111 H111       27.3181    3.6648   -8.5616 H         1 UNK         0.0947 
    112 H112       24.9924    3.7379   -9.4834 H         1 UNK         0.0806 
    113 H113       24.9770    3.6217   -7.7306 H         1 UNK         0.0806 
    114 H114       24.6261    2.2000   -8.7116 H         1 UNK         0.0806 
    115 H115       26.7809    0.2351   -9.2672 H         1 UNK         0.3000 
    116 H116       27.1294    0.5399  -12.1643 H         1 UNK         0.0850 
    117 H117       26.9124   -1.9359  -12.1611 H         1 UNK         0.0810 
    118 H118       25.5983   -1.1985  -11.2564 H         1 UNK         0.0810 
    119 H119       26.9352   -1.9641  -10.4033 H         1 UNK         0.0810 
    120 H120       29.0068   -0.6367   -9.3688 H         1 UNK         0.3040 
    121 H121       31.3581   -1.3856  -10.8849 H         1 UNK         0.0766 
    122 H122       32.2664   -1.8157   -8.5829 H         1 UNK         0.0812 
    123 H123       30.6545   -2.4818   -8.7394 H         1 UNK         0.0812 
    124 H124       30.8979   -0.9601   -7.8834 H         1 UNK         0.0812 
    125 H125       33.5308   -0.5482   -9.9366 H         1 UNK         0.3205 
    126 H126       33.6917    2.3979  -10.2419 H         1 UNK         0.0754 
    127 H127       36.0810    1.9631  -10.6640 H         1 UNK         0.0769 
    128 H128       35.1105    0.9384  -11.7036 H         1 UNK         0.0769 
    129 H129       35.8857    0.2597  -10.2719 H         1 UNK         0.0769 
    130 H130       32.6439    1.1458   -7.7320 H         1 UNK         0.2981 
    131 H131       34.6254    1.2754   -5.6770 H         1 UNK         0.0541 
    132 H132       35.0057    2.9148   -4.0478 H         1 UNK         0.3459 
    133 H133       34.5721    4.5774   -4.3466 H         1 UNK         0.3459 
    134 H134       31.5719    1.4581   -5.4879 H         1 UNK         0.0612 
    135 H135       32.6418    1.3046   -4.1127 H         1 UNK         0.0612 
    136 H136       31.8972   -1.0899   -3.0413 H         1 UNK         0.0624 
    137 H137       30.5563   -0.4637   -3.9697 H         1 UNK         0.0624 
@<TRIPOS>BOND
     1    1    2 1    
     2    1   72 1    
     3    1   73 1    
     4    1   74 1    
     5    2    3 2    
     6    2    4 am   BACKBONE|DICT|INTERRES
     7    4    5 1    
     8    4   75 1    
     9    5    6 1    
    10    5   35 1    
    11    5   76 1    
    12    6    7 1    
    13    6   77 1    
    14    6   78 1    
    15    7    8 1    
    16    8    9 1    
    17    8   79 1    
    18    8   80 1    
    19    9   10 ar   
    20    9   14 ar   
    21   10   11 ar   
    22   10   81 1    
    23   11   12 ar   
    24   11   71 1    
    25   12   13 ar   
    26   12   82 1    
    27   13   14 ar   
    28   13   15 1    
    29   14   83 1    
    30   15   16 1    
    31   15   84 1    
    32   15   85 1    
    33   16   17 1    
    34   17   18 1    
    35   17   86 1    
    36   17   87 1    
    37   18   19 1    
    38   18   37 1    
    39   18   88 1    
    40   19   20 am   BACKBONE|DICT|INTERRES
    41   19   89 1    
    42   20   21 2    
    43   20   22 1    
    44   22   23 1    
    45   22   24 1    
    46   22   90 1    
    47   23   91 1    
    48   23   92 1    
    49   23   93 1    
    50   24   25 am   BACKBONE|DICT|INTERRES
    51   24   94 1    
    52   25   26 2    
    53   25   27 1    
    54   27   28 1    
    55   27   29 1    
    56   27   95 1    
    57   28   96 1    
    58   28   97 1    
    59   28   98 1    
    60   29   30 am   BACKBONE|DICT|INTERRES
    61   29   99 1    
    62   30   31 2    
    63   30   32 1    
    64   32   33 1    
    65   32   34 1    
    66   32  100 1    
    67   33  101 1    
    68   33  102 1    
    69   33  103 1    
    70   34   35 am   BACKBONE|DICT|INTERRES
    71   34  104 1    
    72   35   36 2    
    73   37   38 2    
    74   37   39 am   BACKBONE|DICT|INTERRES
    75   39   40 1    
    76   39  105 1    
    77   40   41 1    
    78   40   42 1    
    79   40  106 1    
    80   41  107 1    
    81   41  108 1    
    82   41  109 1    
    83   42   43 2    
    84   42   44 am   BACKBONE|DICT|INTERRES
    85   44   45 1    
    86   44  110 1    
    87   45   46 1    
    88   45   47 1    
    89   45  111 1    
    90   46  112 1    
    91   46  113 1    
    92   46  114 1    
    93   47   48 2    
    94   47   49 am   BACKBONE|DICT|INTERRES
    95   49   50 1    
    96   49  115 1    
    97   50   51 1    
    98   50   52 1    
    99   50  116 1    
   100   51  117 1    
   101   51  118 1    
   102   51  119 1    
   103   52   53 2    
   104   52   54 am   BACKBONE|DICT|INTERRES
   105   54   55 1    
   106   54  120 1    
   107   55   56 1    
   108   55   57 1    
   109   55  121 1    
   110   56  122 1    
   111   56  123 1    
   112   56  124 1    
   113   57   58 2    
   114   57   59 am   BACKBONE|DICT|INTERRES
   115   59   60 1    
   116   59  125 1    
   117   60   61 1    
   118   60   62 1    
   119   60  126 1    
   120   61  127 1    
   121   61  128 1    
   122   61  129 1    
   123   62   63 2    
   124   62   64 am   BACKBONE|DICT|INTERRES
   125   64   65 1    
   126   64  130 1    
   127   65   66 1    
   128   65   69 1    
   129   65  131 1    
   130   66   67 am   BACKBONE|DICT|INTERRES
   131   66   68 2    
   132   67  132 1    
   133   67  133 1    
   134   69   70 1    
   135   69  134 1    
   136   69  135 1    
   137   70   71 1    
   138   71  136 1    
   139   71  137 1    
@<TRIPOS>SUBSTRUCTURE
     1 UNK         1 GROUP             0       ****    0 ROOT    
