@<TRIPOS>MOLECULE
3R137
137   139    1
SMALL
USER_CHARGES


@<TRIPOS>ATOM
      1 CA         26.2679   -6.0100    1.8995 C.3       0 UNK        -0.2020 
      2 C          26.4890   -4.5071    1.9808 C.2       0 UNK         0.4855 
      3 O          25.8422   -3.8351    2.7844 O.2       0 UNK        -0.5197 
      4 N          27.3994   -3.9746    1.1555 N.am      1 UNK        -0.4892 
      5 CA         27.7336   -2.5464    1.0684 C.3       1 UNK         0.0835 
      6 C6         29.1095   -2.3032    0.3890 C.3       12 UNK        -0.0855 
      7 S7         29.4723   -3.3495   -1.0697 S.3       12 UNK        -0.2931 
      8 C8         28.8060   -2.3433   -2.4273 C.3       12 UNK         0.0378 
      9 C9         29.5917   -2.5456   -3.7142 C.ar      12 UNK        -0.0802 
     10 C10        30.5797   -1.6279   -4.0824 C.ar      12 UNK        -0.0944 
     11 C11        31.2596   -1.7616   -5.2965 C.ar      12 UNK        -0.0787 
     12 C12        30.9648   -2.8454   -6.1306 C.ar      12 UNK        -0.0862 
     13 C13        29.9868   -3.7775   -5.7696 C.ar      12 UNK        -0.0733 
     14 C14        29.3033   -3.6214   -4.5586 C.ar      12 UNK        -0.0832 
     15 C15        29.6816   -4.9603   -6.6809 C.3       12 UNK         0.0240 
     16 S16        28.7040   -4.4924   -8.1486 S.3       12 UNK        -0.2522 
     17 C17        27.0993   -4.0283   -7.4081 C.3       12 UNK        -0.0967 
     18 CA         26.4705   -2.7440   -8.0192 C.3       5 UNK         0.0660 
     19 N          25.1064   -2.4600   -7.5554 N.am      5 UNK        -0.4015 
     20 C          24.7142   -2.2919   -6.2866 C.2       4 UNK         0.4946 
     21 O          25.4299   -2.5181   -5.3085 O.2       4 UNK        -0.5353 
     22 CA         23.2994   -1.7329   -6.0704 C.3       4 UNK         0.0277 
     23 CB         22.3082   -2.8691   -5.7725 C.3       4 UNK        -0.1981 
     24 N          23.2912   -0.7804   -4.9589 N.am      4 UNK        -0.4209 
     25 C          23.9680    0.3786   -4.9290 C.2       3 UNK         0.4942 
     26 O          24.5564    0.8559   -5.9016 O.2       3 UNK        -0.5208 
     27 CA         24.0134    1.1155   -3.5765 C.3       3 UNK         0.0250 
     28 CB         22.8810    2.1511   -3.4893 C.3       3 UNK        -0.1990 
     29 N          23.9314    0.1976   -2.4325 N.am      3 UNK        -0.4232 
     30 C          24.9236   -0.6239   -2.0572 C.2       2 UNK         0.4993 
     31 O          26.0491   -0.6040   -2.5554 O.2       2 UNK        -0.5286 
     32 CA         24.5675   -1.6721   -0.9860 C.3       2 UNK         0.0209 
     33 CB         23.6993   -2.7850   -1.6009 C.3       2 UNK        -0.1931 
     34 N          25.7407   -2.2969   -0.3663 N.am      2 UNK        -0.4546 
     35 C          26.6070   -1.6840    0.4526 C.2       1 UNK         0.5154 
     36 O          26.5204   -0.4958    0.7690 O.2       1 UNK        -0.5181 
     37 C          27.3656   -1.4923   -7.8974 C.2       5 UNK         0.5014 
     38 O          27.8937   -1.0458   -8.9163 O.2       5 UNK        -0.5248 
     39 N          27.4786   -0.9194   -6.6891 N.am      6 UNK        -0.4434 
     40 CA         28.3138    0.2395   -6.3506 C.3       6 UNK         0.0363 
     41 CB         28.0564    0.6635   -4.8978 C.3       6 UNK        -0.1936 
     42 C          28.1336    1.4480   -7.2781 C.2       6 UNK         0.5081 
     43 O          29.1305    2.0120   -7.7277 O.2       6 UNK        -0.5248 
     44 N          26.8746    1.7911   -7.5834 N.am      7 UNK        -0.4718 
     45 CA         26.5007    2.8919   -8.4768 C.3       7 UNK         0.0273 
     46 CB         24.9734    3.0630   -8.4455 C.3       7 UNK        -0.1935 
     47 C          26.9954    2.7410   -9.9293 C.2       7 UNK         0.5018 
     48 O          27.1262    3.7541  -10.6178 O.2       7 UNK        -0.5186 
     49 N          27.2555    1.5024  -10.3693 N.am      8 UNK        -0.4240 
     50 CA         27.7957    1.1880  -11.6918 C.3       8 UNK         0.0235 
     51 CB         27.0507   -0.0273  -12.2701 C.3       8 UNK        -0.2000 
     52 C          29.3051    0.9132  -11.6254 C.2       8 UNK         0.4941 
     53 O          30.0472    1.4116  -12.4723 O.2       8 UNK        -0.5273 
     54 N          29.7287    0.1102  -10.6402 N.am      9 UNK        -0.4262 
     55 CA         31.1024   -0.3647  -10.4788 C.3       9 UNK         0.0264 
     56 CB         31.1038   -1.5722   -9.5303 C.3       9 UNK        -0.1955 
     57 C          32.0815    0.7049   -9.9742 C.2       9 UNK         0.5031 
     58 O          33.2558    0.6504  -10.3438 O.2       9 UNK        -0.5390 
     59 N          31.6083    1.6269   -9.1216 N.am      10 UNK        -0.4204 
     60 CA         32.3265    2.7314   -8.4656 C.3       10 UNK         0.0237 
     61 CB         32.8759    3.7353   -9.4980 C.3       10 UNK        -0.1985 
     62 C          33.4223    2.3121   -7.4646 C.2       10 UNK         0.4970 
     63 O          33.5177    2.9282   -6.4030 O.2       10 UNK        -0.4914 
     64 N          34.2233    1.2958   -7.8109 N.am      11 UNK        -0.4285 
     65 CA         35.3751    0.7730   -7.0522 C.3       11 UNK         0.1007 
     66 C          36.5634    1.7772   -6.9164 C.2       11 UNK         0.5703 
     67 N          36.6510    2.8132   -7.7430 N.am      11 UNK        -0.7361 
     68 O          37.4429    1.6016   -6.0759 O.2       11 UNK        -0.4986 
     69 C69        34.9706    0.1224   -5.6956 C.3       12 UNK        -0.0947 
     70 S70        33.9472   -1.3771   -5.8852 S.3       12 UNK        -0.2240 
     71 C71        32.2674   -0.7020   -5.7224 C.3       12 UNK         0.0194 
     72 H72        26.4790   -6.4728    2.8632 H         1 UNK         0.0906 
     73 H73        25.2316   -6.2231    1.6387 H         1 UNK         0.0906 
     74 H74        26.9087   -6.4771    1.1517 H         1 UNK         0.0906 
     75 H75        27.9141   -4.5683    0.5182 H         1 UNK         0.3140 
     76 H76        27.8275   -2.1859    2.0958 H         1 UNK         0.1085 
     77 H77        29.2538   -1.2494    0.1418 H         1 UNK         0.0836 
     78 H78        29.8911   -2.5231    1.1179 H         1 UNK         0.0836 
     79 H79        28.8101   -1.2880   -2.1510 H         1 UNK         0.0731 
     80 H80        27.7610   -2.6116   -2.5883 H         1 UNK         0.0731 
     81 H81        30.7950   -0.7888   -3.4350 H         1 UNK         0.1312 
     82 H82        31.4944   -2.9631   -7.0652 H         1 UNK         0.1406 
     83 H83        28.5402   -4.3323   -4.2718 H         1 UNK         0.1631 
     84 H84        29.1545   -5.7441   -6.1346 H         1 UNK         0.0717 
     85 H85        30.6203   -5.4046   -7.0151 H         1 UNK         0.0717 
     86 H86        26.4172   -4.8684   -7.5456 H         1 UNK         0.0934 
     87 H87        27.2201   -3.9242   -6.3318 H         1 UNK         0.0934 
     88 H88        26.3638   -2.9311   -9.0893 H         1 UNK         0.0739 
     89 H89        24.4456   -2.2448   -8.2891 H         1 UNK         0.3093 
     90 H90        22.9778   -1.2042   -6.9703 H         1 UNK         0.0818 
     91 H91        21.2965   -2.4881   -5.6314 H         1 UNK         0.0819 
     92 H92        22.2722   -3.5825   -6.5969 H         1 UNK         0.0819 
     93 H93        22.5876   -3.4233   -4.8751 H         1 UNK         0.0819 
     94 H94        22.8667   -1.0981   -4.1020 H         1 UNK         0.3041 
     95 H95        24.9657    1.6474   -3.5229 H         1 UNK         0.0784 
     96 H96        22.9371    2.8582   -4.3183 H         1 UNK         0.0793 
     97 H97        21.8971    1.6818   -3.5277 H         1 UNK         0.0793 
     98 H98        22.9427    2.7299   -2.5675 H         1 UNK         0.0793 
     99 H99        23.0407    0.1409   -1.9592 H         1 UNK         0.3024 
    100 H100       24.0011   -1.1720   -0.1970 H         1 UNK         0.1171 
    101 H101       22.7632   -2.3882   -1.9950 H         1 UNK         0.0786 
    102 H102       24.2129   -3.2853   -2.4239 H         1 UNK         0.0786 
    103 H103       23.4366   -3.5404   -0.8598 H         1 UNK         0.0786 
    104 H104       25.9045   -3.2695   -0.5788 H         1 UNK         0.2977 
    105 H105       26.9619   -1.3477   -5.9261 H         1 UNK         0.3127 
    106 H106       29.3502   -0.0863   -6.4383 H         1 UNK         0.0770 
    107 H107       27.0534    1.0681   -4.7651 H         1 UNK         0.0814 
    108 H108       28.7637    1.4317   -4.5833 H         1 UNK         0.0814 
    109 H109       28.1584   -0.1739   -4.2124 H         1 UNK         0.0814 
    110 H110       26.1136    1.2933   -7.1287 H         1 UNK         0.2983 
    111 H111       26.9554    3.8022   -8.0800 H         1 UNK         0.0947 
    112 H112       24.6566    3.8872   -9.0862 H         1 UNK         0.0806 
    113 H113       24.6200    3.2831   -7.4379 H         1 UNK         0.0806 
    114 H114       24.4611    2.1638   -8.7900 H         1 UNK         0.0806 
    115 H115       27.1749    0.7314   -9.7160 H         1 UNK         0.3000 
    116 H116       27.6406    2.0279  -12.3726 H         1 UNK         0.0850 
    117 H117       27.4350   -0.2862  -13.2577 H         1 UNK         0.0810 
    118 H118       25.9862    0.1792  -12.3811 H         1 UNK         0.0810 
    119 H119       27.1554   -0.9097  -11.6375 H         1 UNK         0.0810 
    120 H120       29.0404   -0.2809   -9.9965 H         1 UNK         0.3040 
    121 H121       31.4608   -0.7003  -11.4543 H         1 UNK         0.0766 
    122 H122       32.1158   -1.9431   -9.3612 H         1 UNK         0.0812 
    123 H123       30.5178   -2.3969   -9.9366 H         1 UNK         0.0812 
    124 H124       30.6789   -1.3117   -8.5610 H         1 UNK         0.0812 
    125 H125       30.6296    1.5644   -8.8479 H         1 UNK         0.3205 
    126 H126       31.5682    3.2553   -7.8816 H         1 UNK         0.0754 
    127 H127       33.3187    4.6003   -9.0023 H         1 UNK         0.0769 
    128 H128       32.0828    4.1055  -10.1479 H         1 UNK         0.0769 
    129 H129       33.6469    3.2940  -10.1301 H         1 UNK         0.0769 
    130 H130       34.0722    0.8886   -8.7314 H         1 UNK         0.2981 
    131 H131       35.7824   -0.0238   -7.6751 H         1 UNK         0.0541 
    132 H132       37.4282    3.4489   -7.6559 H         1 UNK         0.3459 
    133 H133       35.9518    2.9623   -8.4520 H         1 UNK         0.3459 
    134 H134       34.4738    0.8420   -5.0442 H         1 UNK         0.0612 
    135 H135       35.8587   -0.1989   -5.1492 H         1 UNK         0.0612 
    136 H136       31.9605   -0.2763   -6.6780 H         1 UNK         0.0624 
    137 H137       32.2728    0.1218   -5.0073 H         1 UNK         0.0624 
@<TRIPOS>BOND
     1    1    2 1    
     2    1   72 1    
     3    1   73 1    
     4    1   74 1    
     5    2    3 2    
     6    2    4 am   BACKBONE|DICT|INTERRES
     7    4    5 1    
     8    4   75 1    
     9    5    6 1    
    10    5   35 1    
    11    5   76 1    
    12    6    7 1    
    13    6   77 1    
    14    6   78 1    
    15    7    8 1    
    16    8    9 1    
    17    8   79 1    
    18    8   80 1    
    19    9   10 ar   
    20    9   14 ar   
    21   10   11 ar   
    22   10   81 1    
    23   11   12 ar   
    24   11   71 1    
    25   12   13 ar   
    26   12   82 1    
    27   13   14 ar   
    28   13   15 1    
    29   14   83 1    
    30   15   16 1    
    31   15   84 1    
    32   15   85 1    
    33   16   17 1    
    34   17   18 1    
    35   17   86 1    
    36   17   87 1    
    37   18   19 1    
    38   18   37 1    
    39   18   88 1    
    40   19   20 am   BACKBONE|DICT|INTERRES
    41   19   89 1    
    42   20   21 2    
    43   20   22 1    
    44   22   23 1    
    45   22   24 1    
    46   22   90 1    
    47   23   91 1    
    48   23   92 1    
    49   23   93 1    
    50   24   25 am   BACKBONE|DICT|INTERRES
    51   24   94 1    
    52   25   26 2    
    53   25   27 1    
    54   27   28 1    
    55   27   29 1    
    56   27   95 1    
    57   28   96 1    
    58   28   97 1    
    59   28   98 1    
    60   29   30 am   BACKBONE|DICT|INTERRES
    61   29   99 1    
    62   30   31 2    
    63   30   32 1    
    64   32   33 1    
    65   32   34 1    
    66   32  100 1    
    67   33  101 1    
    68   33  102 1    
    69   33  103 1    
    70   34   35 am   BACKBONE|DICT|INTERRES
    71   34  104 1    
    72   35   36 2    
    73   37   38 2    
    74   37   39 am   BACKBONE|DICT|INTERRES
    75   39   40 1    
    76   39  105 1    
    77   40   41 1    
    78   40   42 1    
    79   40  106 1    
    80   41  107 1    
    81   41  108 1    
    82   41  109 1    
    83   42   43 2    
    84   42   44 am   BACKBONE|DICT|INTERRES
    85   44   45 1    
    86   44  110 1    
    87   45   46 1    
    88   45   47 1    
    89   45  111 1    
    90   46  112 1    
    91   46  113 1    
    92   46  114 1    
    93   47   48 2    
    94   47   49 am   BACKBONE|DICT|INTERRES
    95   49   50 1    
    96   49  115 1    
    97   50   51 1    
    98   50   52 1    
    99   50  116 1    
   100   51  117 1    
   101   51  118 1    
   102   51  119 1    
   103   52   53 2    
   104   52   54 am   BACKBONE|DICT|INTERRES
   105   54   55 1    
   106   54  120 1    
   107   55   56 1    
   108   55   57 1    
   109   55  121 1    
   110   56  122 1    
   111   56  123 1    
   112   56  124 1    
   113   57   58 2    
   114   57   59 am   BACKBONE|DICT|INTERRES
   115   59   60 1    
   116   59  125 1    
   117   60   61 1    
   118   60   62 1    
   119   60  126 1    
   120   61  127 1    
   121   61  128 1    
   122   61  129 1    
   123   62   63 2    
   124   62   64 am   BACKBONE|DICT|INTERRES
   125   64   65 1    
   126   64  130 1    
   127   65   66 1    
   128   65   69 1    
   129   65  131 1    
   130   66   67 am   BACKBONE|DICT|INTERRES
   131   66   68 2    
   132   67  132 1    
   133   67  133 1    
   134   69   70 1    
   135   69  134 1    
   136   69  135 1    
   137   70   71 1    
   138   71  136 1    
   139   71  137 1    
@<TRIPOS>SUBSTRUCTURE
     1 UNK         1 GROUP             0       ****    0 ROOT    
