@<TRIPOS>MOLECULE
3R137
137   139    1
SMALL
USER_CHARGES


@<TRIPOS>ATOM
      1 CA         27.4769   -1.6054    3.3899 C.3       0 UNK        -0.2020 
      2 C          28.1116   -0.7992    2.2670 C.2       0 UNK         0.4855 
      3 O          28.4463    0.3689    2.4647 O.2       0 UNK        -0.5197 
      4 N          28.2792   -1.4123    1.0880 N.am      1 UNK        -0.4892 
      5 CA         28.8534   -0.7864   -0.1112 C.3       1 UNK         0.0835 
      6 C6         29.3682   -1.8486   -1.1138 C.3       12 UNK        -0.0855 
      7 S7         28.0822   -3.0271   -1.6695 S.3       12 UNK        -0.2931 
      8 C8         29.0721   -4.4972   -2.0900 C.3       12 UNK         0.0378 
      9 C9         29.6820   -4.4170   -3.4854 C.ar      12 UNK        -0.0802 
     10 C10        30.8227   -3.6417   -3.7145 C.ar      12 UNK        -0.0944 
     11 C11        31.4212   -3.6035   -4.9776 C.ar      12 UNK        -0.0787 
     12 C12        30.8826   -4.3776   -6.0126 C.ar      12 UNK        -0.0862 
     13 C13        29.7449   -5.1632   -5.7991 C.ar      12 UNK        -0.0733 
     14 C14        29.1405   -5.1652   -4.5367 C.ar      12 UNK        -0.0832 
     15 C15        29.2180   -6.0716   -6.9063 C.3       12 UNK         0.0240 
     16 S16        28.5530   -5.1656   -8.3410 S.3       12 UNK        -0.2522 
     17 C17        27.0135   -4.4592   -7.6599 C.3       12 UNK        -0.0967 
     18 CA         26.6835   -3.0441   -8.2024 C.3       5 UNK         0.0660 
     19 N          25.3768   -2.5907   -7.7162 N.am      5 UNK        -0.4015 
     20 C          24.7681   -1.4436   -8.0535 C.2       4 UNK         0.4946 
     21 O          25.1913   -0.6602   -8.9014 O.2       4 UNK        -0.5353 
     22 CA         23.4993   -1.0765   -7.2631 C.3       4 UNK         0.0277 
     23 CB         22.2519   -1.6713   -7.9356 C.3       4 UNK        -0.1981 
     24 N          23.5501   -1.4908   -5.8552 N.am      4 UNK        -0.4209 
     25 C          24.4771   -1.0844   -4.9757 C.2       3 UNK         0.4942 
     26 O          25.3896   -0.3038   -5.2557 O.2       3 UNK        -0.5208 
     27 CA         24.4169   -1.7331   -3.5832 C.3       3 UNK         0.0250 
     28 CB         25.0570   -3.1315   -3.6288 C.3       3 UNK        -0.1990 
     29 N          25.0979   -0.9335   -2.5620 N.am      3 UNK        -0.4232 
     30 C          24.6744    0.2570   -2.1121 C.2       2 UNK         0.4993 
     31 O          23.6286    0.7899   -2.4885 O.2       2 UNK        -0.5286 
     32 CA         25.5309    0.9647   -1.0446 C.3       2 UNK         0.0209 
     33 CB         24.6654    1.4442    0.1352 C.3       2 UNK        -0.1931 
     34 N          26.5942    0.1049   -0.5168 N.am      2 UNK        -0.4546 
     35 C          27.9005    0.2243   -0.7899 C.2       1 UNK         0.5154 
     36 O          28.3660    1.0831   -1.5395 O.2       1 UNK        -0.5181 
     37 C          27.7917   -2.0226   -7.8725 C.2       5 UNK         0.5014 
     38 O          28.5129   -1.5927   -8.7736 O.2       5 UNK        -0.5248 
     39 N          27.8704   -1.6283   -6.5943 N.am      6 UNK        -0.4434 
     40 CA         28.8481   -0.6753   -6.0741 C.3       6 UNK         0.0363 
     41 CB         28.7557   -0.6403   -4.5450 C.3       6 UNK        -0.1936 
     42 C          28.6882    0.7312   -6.6639 C.2       6 UNK         0.5081 
     43 O          29.6937    1.3959   -6.9160 O.2       6 UNK        -0.5248 
     44 N          27.4352    1.1440   -6.8952 N.am      7 UNK        -0.4718 
     45 CA         27.0863    2.3878   -7.5780 C.3       7 UNK         0.0273 
     46 CB         25.5867    2.6723   -7.3975 C.3       7 UNK        -0.1935 
     47 C          27.4720    2.3646   -9.0669 C.2       7 UNK         0.5018 
     48 O          28.0998    3.3135   -9.5365 O.2       7 UNK        -0.5186 
     49 N          27.1075    1.2856   -9.7766 N.am      8 UNK        -0.4240 
     50 CA         27.3710    1.1001  -11.2071 C.3       8 UNK         0.0235 
     51 CB         26.5880   -0.1147  -11.7307 C.3       8 UNK        -0.2000 
     52 C          28.8643    0.9608  -11.5388 C.2       8 UNK         0.4941 
     53 O          29.3310    1.5898  -12.4895 O.2       8 UNK        -0.5273 
     54 N          29.5891    0.1550  -10.7507 N.am      9 UNK        -0.4262 
     55 CA         31.0340   -0.0487  -10.8923 C.3       9 UNK         0.0264 
     56 CB         31.4189   -1.3803  -10.2289 C.3       9 UNK        -0.1955 
     57 C          31.8733    1.1072  -10.3167 C.2       9 UNK         0.5031 
     58 O          33.0698    1.1710  -10.6020 O.2       9 UNK        -0.5390 
     59 N          31.2472    1.9769   -9.5087 N.am      10 UNK        -0.4204 
     60 CA         31.8222    3.1196   -8.7864 C.3       10 UNK         0.0237 
     61 CB         32.3860    4.1733   -9.7635 C.3       10 UNK        -0.1985 
     62 C          32.8306    2.7257   -7.6864 C.2       10 UNK         0.4970 
     63 O          33.5915    3.5804   -7.2290 O.2       10 UNK        -0.4914 
     64 N          32.8074    1.4558   -7.2645 N.am      11 UNK        -0.4285 
     65 CA         33.5959    0.9134   -6.1503 C.3       11 UNK         0.1007 
     66 C          32.9514    1.1424   -4.7523 C.2       11 UNK         0.5703 
     67 N          31.7091    1.6039   -4.6594 N.am      11 UNK        -0.7361 
     68 O          33.6008    0.9170   -3.7341 O.2       11 UNK        -0.4986 
     69 C69        33.9840   -0.5691   -6.3985 C.3       12 UNK        -0.0947 
     70 S70        32.5510   -1.6723   -6.6439 S.3       12 UNK        -0.2240 
     71 C71        32.6763   -2.7637   -5.1932 C.3       12 UNK         0.0194 
     72 H72        27.2335   -2.6206    3.0768 H         1 UNK         0.0906 
     73 H73        28.1577   -1.6667    4.2385 H         1 UNK         0.0906 
     74 H74        26.5582   -1.1242    3.7243 H         1 UNK         0.0906 
     75 H75        27.9925   -2.3754    0.9740 H         1 UNK         0.3140 
     76 H76        29.7197   -0.2031    0.2099 H         1 UNK         0.1085 
     77 H77        29.8172   -1.3656   -1.9822 H         1 UNK         0.0836 
     78 H78        30.1776   -2.4090   -0.6437 H         1 UNK         0.0836 
     79 H79        29.8574   -4.6464   -1.3478 H         1 UNK         0.0731 
     80 H80        28.4258   -5.3731   -2.0162 H         1 UNK         0.0731 
     81 H81        31.2535   -3.0749   -2.9015 H         1 UNK         0.1312 
     82 H82        31.3561   -4.3777   -6.9850 H         1 UNK         0.1406 
     83 H83        28.2694   -5.7816   -4.3599 H         1 UNK         0.1631 
     84 H84        30.0338   -6.7090   -7.2500 H         1 UNK         0.0717 
     85 H85        28.4495   -6.7464   -6.5261 H         1 UNK         0.0717 
     86 H86        26.2042   -5.1477   -7.9085 H         1 UNK         0.0934 
     87 H87        27.0691   -4.4458   -6.5701 H         1 UNK         0.0934 
     88 H88        26.6133   -3.1049   -9.2907 H         1 UNK         0.0739 
     89 H89        24.9313   -3.1693   -7.0207 H         1 UNK         0.3093 
     90 H90        23.4094    0.0116   -7.2796 H         1 UNK         0.0818 
     91 H91        21.3381   -1.3384   -7.4430 H         1 UNK         0.0819 
     92 H92        22.1863   -1.3586   -8.9789 H         1 UNK         0.0819 
     93 H93        22.2635   -2.7618   -7.9228 H         1 UNK         0.0819 
     94 H94        22.8355   -2.1349   -5.5466 H         1 UNK         0.3041 
     95 H95        23.3694   -1.8321   -3.2905 H         1 UNK         0.0784 
     96 H96        24.5255   -3.7891   -4.3174 H         1 UNK         0.0793 
     97 H97        26.0971   -3.0898   -3.9549 H         1 UNK         0.0793 
     98 H98        25.0342   -3.6106   -2.6496 H         1 UNK         0.0793 
     99 H99        25.9816   -1.2860   -2.2236 H         1 UNK         0.3024 
    100 H100       25.9631    1.8438   -1.5278 H         1 UNK         0.1171 
    101 H101       25.2677    1.9608    0.8827 H         1 UNK         0.0786 
    102 H102       23.8977    2.1441   -0.1972 H         1 UNK         0.0786 
    103 H103       24.1593    0.6137    0.6282 H         1 UNK         0.0786 
    104 H104       26.3107   -0.6370    0.1077 H         1 UNK         0.2977 
    105 H105       27.1897   -1.9715   -5.9345 H         1 UNK         0.3127 
    106 H106       29.8353   -1.0423   -6.3504 H         1 UNK         0.0770 
    107 H107       27.8082   -0.2278   -4.1977 H         1 UNK         0.0814 
    108 H108       29.5506   -0.0303   -4.1175 H         1 UNK         0.0814 
    109 H109       28.8563   -1.6417   -4.1331 H         1 UNK         0.0814 
    110 H110       26.6711    0.5510   -6.5850 H         1 UNK         0.2983 
    111 H111       27.6451    3.1974   -7.1029 H         1 UNK         0.0947 
    112 H112       25.3123    3.6221   -7.8585 H         1 UNK         0.0806 
    113 H113       25.3195    2.7332   -6.3421 H         1 UNK         0.0806 
    114 H114       24.9689    1.8982   -7.8528 H         1 UNK         0.0806 
    115 H115       26.5622    0.5563   -9.3204 H         1 UNK         0.3000 
    116 H116       27.0020    1.9872  -11.7264 H         1 UNK         0.0850 
    117 H117       26.7697   -0.2704  -12.7950 H         1 UNK         0.0810 
    118 H118       25.5142    0.0221  -11.6020 H         1 UNK         0.0810 
    119 H119       26.8716   -1.0312  -11.2113 H         1 UNK         0.0810 
    120 H120       29.1239   -0.3704  -10.0098 H         1 UNK         0.3040 
    121 H121       31.2736   -0.1219  -11.9553 H         1 UNK         0.0766 
    122 H122       30.9069   -2.2199  -10.6993 H         1 UNK         0.0812 
    123 H123       31.1598   -1.3871   -9.1709 H         1 UNK         0.0812 
    124 H124       32.4908   -1.5674  -10.3057 H         1 UNK         0.0812 
    125 H125       30.2671    1.8102   -9.3199 H         1 UNK         0.3205 
    126 H126       30.9837    3.5801   -8.2617 H         1 UNK         0.0754 
    127 H127       32.6571    5.0897   -9.2381 H         1 UNK         0.0769 
    128 H128       31.6506    4.4425  -10.5217 H         1 UNK         0.0769 
    129 H129       33.2808    3.8165  -10.2742 H         1 UNK         0.0769 
    130 H130       32.1132    0.8342   -7.6525 H         1 UNK         0.2981 
    131 H131       34.5358    1.4674   -6.1174 H         1 UNK         0.0541 
    132 H132       31.1483    1.7419   -5.4917 H         1 UNK         0.3459 
    133 H133       31.3121    1.7666   -3.7486 H         1 UNK         0.3459 
    134 H134       34.6115   -0.9444   -5.5882 H         1 UNK         0.0612 
    135 H135       34.6007   -0.6334   -7.2961 H         1 UNK         0.0612 
    136 H136       32.8756   -2.1491   -4.3137 H         1 UNK         0.0624 
    137 H137       33.5345   -3.4255   -5.3159 H         1 UNK         0.0624 
@<TRIPOS>BOND
     1    1    2 1    
     2    1   72 1    
     3    1   73 1    
     4    1   74 1    
     5    2    3 2    
     6    2    4 am   BACKBONE|DICT|INTERRES
     7    4    5 1    
     8    4   75 1    
     9    5    6 1    
    10    5   35 1    
    11    5   76 1    
    12    6    7 1    
    13    6   77 1    
    14    6   78 1    
    15    7    8 1    
    16    8    9 1    
    17    8   79 1    
    18    8   80 1    
    19    9   10 ar   
    20    9   14 ar   
    21   10   11 ar   
    22   10   81 1    
    23   11   12 ar   
    24   11   71 1    
    25   12   13 ar   
    26   12   82 1    
    27   13   14 ar   
    28   13   15 1    
    29   14   83 1    
    30   15   16 1    
    31   15   84 1    
    32   15   85 1    
    33   16   17 1    
    34   17   18 1    
    35   17   86 1    
    36   17   87 1    
    37   18   19 1    
    38   18   37 1    
    39   18   88 1    
    40   19   20 am   BACKBONE|DICT|INTERRES
    41   19   89 1    
    42   20   21 2    
    43   20   22 1    
    44   22   23 1    
    45   22   24 1    
    46   22   90 1    
    47   23   91 1    
    48   23   92 1    
    49   23   93 1    
    50   24   25 am   BACKBONE|DICT|INTERRES
    51   24   94 1    
    52   25   26 2    
    53   25   27 1    
    54   27   28 1    
    55   27   29 1    
    56   27   95 1    
    57   28   96 1    
    58   28   97 1    
    59   28   98 1    
    60   29   30 am   BACKBONE|DICT|INTERRES
    61   29   99 1    
    62   30   31 2    
    63   30   32 1    
    64   32   33 1    
    65   32   34 1    
    66   32  100 1    
    67   33  101 1    
    68   33  102 1    
    69   33  103 1    
    70   34   35 am   BACKBONE|DICT|INTERRES
    71   34  104 1    
    72   35   36 2    
    73   37   38 2    
    74   37   39 am   BACKBONE|DICT|INTERRES
    75   39   40 1    
    76   39  105 1    
    77   40   41 1    
    78   40   42 1    
    79   40  106 1    
    80   41  107 1    
    81   41  108 1    
    82   41  109 1    
    83   42   43 2    
    84   42   44 am   BACKBONE|DICT|INTERRES
    85   44   45 1    
    86   44  110 1    
    87   45   46 1    
    88   45   47 1    
    89   45  111 1    
    90   46  112 1    
    91   46  113 1    
    92   46  114 1    
    93   47   48 2    
    94   47   49 am   BACKBONE|DICT|INTERRES
    95   49   50 1    
    96   49  115 1    
    97   50   51 1    
    98   50   52 1    
    99   50  116 1    
   100   51  117 1    
   101   51  118 1    
   102   51  119 1    
   103   52   53 2    
   104   52   54 am   BACKBONE|DICT|INTERRES
   105   54   55 1    
   106   54  120 1    
   107   55   56 1    
   108   55   57 1    
   109   55  121 1    
   110   56  122 1    
   111   56  123 1    
   112   56  124 1    
   113   57   58 2    
   114   57   59 am   BACKBONE|DICT|INTERRES
   115   59   60 1    
   116   59  125 1    
   117   60   61 1    
   118   60   62 1    
   119   60  126 1    
   120   61  127 1    
   121   61  128 1    
   122   61  129 1    
   123   62   63 2    
   124   62   64 am   BACKBONE|DICT|INTERRES
   125   64   65 1    
   126   64  130 1    
   127   65   66 1    
   128   65   69 1    
   129   65  131 1    
   130   66   67 am   BACKBONE|DICT|INTERRES
   131   66   68 2    
   132   67  132 1    
   133   67  133 1    
   134   69   70 1    
   135   69  134 1    
   136   69  135 1    
   137   70   71 1    
   138   71  136 1    
   139   71  137 1    
@<TRIPOS>SUBSTRUCTURE
     1 UNK         1 GROUP             0       ****    0 ROOT    
