@<TRIPOS>MOLECULE
3R137
137   139    1
SMALL
USER_CHARGES


@<TRIPOS>ATOM
      1 CA         25.0583   -2.0531   -9.7157 C.3       0 UNK        -0.2020 
      2 C          25.3908   -3.2104   -8.7903 C.2       0 UNK         0.4855 
      3 O          24.8992   -4.3205   -8.9953 O.2       0 UNK        -0.5197 
      4 N          26.2171   -2.9580   -7.7677 N.am      1 UNK        -0.4892 
      5 CA         26.6285   -3.9538   -6.7662 C.3       1 UNK         0.0835 
      6 C6         27.9356   -3.5394   -6.0490 C.3       12 UNK        -0.0855 
      7 S7         29.3264   -3.4146   -7.2173 S.3       12 UNK        -0.2931 
      8 C8         30.7432   -3.3114   -6.0848 C.3       12 UNK         0.0378 
      9 C9         30.7267   -2.0508   -5.2299 C.ar      12 UNK        -0.0802 
     10 C10        30.8759   -0.7907   -5.8206 C.ar      12 UNK        -0.0944 
     11 C11        30.9419    0.3604   -5.0285 C.ar      12 UNK        -0.0787 
     12 C12        30.8537    0.2420   -3.6400 C.ar      12 UNK        -0.0862 
     13 C13        30.6633   -1.0052   -3.0389 C.ar      12 UNK        -0.0733 
     14 C14        30.6037   -2.1492   -3.8396 C.ar      12 UNK        -0.0832 
     15 C15        30.5416   -1.1159   -1.5240 C.3       12 UNK         0.0240 
     16 S16        28.8050   -1.1100   -0.9643 S.3       12 UNK        -0.2522 
     17 C17        28.2588    0.5554   -1.4706 C.3       12 UNK        -0.0967 
     18 CA         27.3041    0.4804   -2.7007 C.3       5 UNK         0.0660 
     19 N          25.8953    0.3330   -2.3092 N.am      5 UNK        -0.4015 
     20 C          25.1369    1.2511   -1.6815 C.2       4 UNK         0.4946 
     21 O          25.5435    2.3631   -1.3421 O.2       4 UNK        -0.5353 
     22 CA         23.6695    0.8930   -1.3679 C.3       4 UNK         0.0277 
     23 CB         22.7315    1.5576   -2.3898 C.3       4 UNK        -0.1981 
     24 N          23.4010   -0.5443   -1.3430 N.am      4 UNK        -0.4209 
     25 C          23.8922   -1.4135   -0.4484 C.2       3 UNK         0.4942 
     26 O          24.5121   -1.0778    0.5611 O.2       3 UNK        -0.5208 
     27 CA         23.6856   -2.9142   -0.7429 C.3       3 UNK         0.0250 
     28 CB         22.6031   -3.4978    0.1802 C.3       3 UNK        -0.1990 
     29 N          23.3495   -3.2351   -2.1393 N.am      3 UNK        -0.4232 
     30 C          24.0951   -2.9339   -3.2125 C.2       2 UNK         0.4993 
     31 O          25.1524   -2.2992   -3.1562 O.2       2 UNK        -0.5286 
     32 CA         23.5147   -3.3336   -4.5788 C.3       2 UNK         0.0209 
     33 CB         22.4006   -2.3576   -4.9953 C.3       2 UNK        -0.1931 
     34 N          24.5497   -3.3237   -5.6110 N.am      2 UNK        -0.4546 
     35 C          25.5205   -4.2391   -5.7315 C.2       1 UNK         0.5154 
     36 O          25.5681   -5.2725   -5.0614 O.2       1 UNK        -0.5181 
     37 C          27.4729    1.6370   -3.7112 C.2       5 UNK         0.5014 
     38 O          28.1643    2.6206   -3.4367 O.2       5 UNK        -0.5248 
     39 N          26.7985    1.5056   -4.8600 N.am      6 UNK        -0.4434 
     40 CA         26.7404    2.4998   -5.9263 C.3       6 UNK         0.0363 
     41 CB         25.6988    3.5781   -5.5611 C.3       6 UNK        -0.1936 
     42 C          26.3941    1.8117   -7.2550 C.2       6 UNK         0.5081 
     43 O          26.1259    0.6063   -7.2738 O.2       6 UNK        -0.5248 
     44 N          26.3902    2.6126   -8.3318 N.am      7 UNK        -0.4718 
     45 CA         26.0186    2.2664   -9.7129 C.3       7 UNK         0.0273 
     46 CB         24.5285    1.8686   -9.7989 C.3       7 UNK        -0.1935 
     47 C          26.9576    1.2459  -10.3883 C.2       7 UNK         0.5018 
     48 O          26.5347    0.5292  -11.2970 O.2       7 UNK        -0.5186 
     49 N          28.2203    1.2140   -9.9531 N.am      8 UNK        -0.4240 
     50 CA         29.2873    0.3610  -10.4650 C.3       8 UNK         0.0235 
     51 CB         29.2060   -1.0190   -9.7926 C.3       8 UNK        -0.2000 
     52 C          30.6283    1.0433  -10.1719 C.2       8 UNK         0.4941 
     53 O          30.6735    1.9492   -9.3364 O.2       8 UNK        -0.5273 
     54 N          31.6867    0.6011  -10.8627 N.am      9 UNK        -0.4262 
     55 CA         33.0438    1.1469  -10.7377 C.3       9 UNK         0.0264 
     56 CB         33.6457    1.3002  -12.1453 C.3       9 UNK        -0.1955 
     57 C          33.9714    0.2883   -9.8588 C.2       9 UNK         0.5031 
     58 O          35.0391    0.7683   -9.4748 O.2       9 UNK        -0.5390 
     59 N          33.5800   -0.9568   -9.5515 N.am      10 UNK        -0.4204 
     60 CA         34.3774   -1.9491   -8.8156 C.3       10 UNK         0.0237 
     61 CB         33.8857   -3.3571   -9.2041 C.3       10 UNK        -0.1985 
     62 C          34.3787   -1.7256   -7.2871 C.2       10 UNK         0.4970 
     63 O          34.2165   -2.6802   -6.5259 O.2       10 UNK        -0.4914 
     64 N          34.5401   -0.4684   -6.8656 N.am      11 UNK        -0.4285 
     65 CA         34.3840   -0.0086   -5.4760 C.3       11 UNK         0.1007 
     66 C          35.6022   -0.2890   -4.5504 C.2       11 UNK         0.5703 
     67 N          36.7262   -0.7810   -5.0584 N.am      11 UNK        -0.7361 
     68 O          35.5248   -0.0616   -3.3454 O.2       11 UNK        -0.4986 
     69 C69        33.9471    1.4829   -5.4044 C.3       12 UNK        -0.0947 
     70 S70        32.6433    1.9224   -6.6078 S.3       12 UNK        -0.2240 
     71 C71        31.1013    1.7384   -5.6576 C.3       12 UNK         0.0194 
     72 H72        25.4498   -2.2414  -10.7151 H         1 UNK         0.0906 
     73 H73        23.9791   -1.9209   -9.7875 H         1 UNK         0.0906 
     74 H74        25.4899   -1.1216   -9.3536 H         1 UNK         0.0906 
     75 H75        26.6012   -2.0290   -7.6510 H         1 UNK         0.3140 
     76 H76        26.8152   -4.8983   -7.2829 H         1 UNK         0.1085 
     77 H77        28.2021   -4.2692   -5.2814 H         1 UNK         0.0836 
     78 H78        27.8134   -2.5824   -5.5370 H         1 UNK         0.0836 
     79 H79        31.6579   -3.3255   -6.6764 H         1 UNK         0.0731 
     80 H80        30.7711   -4.2078   -5.4634 H         1 UNK         0.0731 
     81 H81        30.9662   -0.7068   -6.8948 H         1 UNK         0.1312 
     82 H82        30.9210    1.1300   -3.0273 H         1 UNK         0.1406 
     83 H83        30.4760   -3.1179   -3.3757 H         1 UNK         0.1631 
     84 H84        31.0822   -0.3025   -1.0371 H         1 UNK         0.0717 
     85 H85        31.0161   -2.0376   -1.1842 H         1 UNK         0.0717 
     86 H86        27.7748    1.0343   -0.6187 H         1 UNK         0.0934 
     87 H87        29.1407    1.1654   -1.6583 H         1 UNK         0.0934 
     88 H88        27.5527   -0.4172   -3.2706 H         1 UNK         0.0739 
     89 H89        25.4840   -0.5682   -2.5448 H         1 UNK         0.3093 
     90 H90        23.4407    1.2933   -0.3778 H         1 UNK         0.0818 
     91 H91        22.9055    1.1860   -3.4006 H         1 UNK         0.0819 
     92 H92        21.6843    1.3834   -2.1415 H         1 UNK         0.0819 
     93 H93        22.8811    2.6382   -2.4112 H         1 UNK         0.0819 
     94 H94        22.8873   -0.9205   -2.1255 H         1 UNK         0.3041 
     95 H95        24.6317   -3.4109   -0.5176 H         1 UNK         0.0784 
     96 H96        22.8376   -3.3064    1.2285 H         1 UNK         0.0793 
     97 H97        21.6239   -3.0604   -0.0192 H         1 UNK         0.0793 
     98 H98        22.5200   -4.5786    0.0631 H         1 UNK         0.0793 
     99 H99        22.4838   -3.7368   -2.2807 H         1 UNK         0.3024 
    100 H100       23.1036   -4.3432   -4.5037 H         1 UNK         0.1171 
    101 H101       21.9808   -2.6279   -5.9646 H         1 UNK         0.0786 
    102 H102       21.5782   -2.3645   -4.2787 H         1 UNK         0.0786 
    103 H103       22.7656   -1.3317   -5.0644 H         1 UNK         0.0786 
    104 H104       24.6100   -2.4999   -6.1910 H         1 UNK         0.2977 
    105 H105       26.3016    0.6480   -5.0679 H         1 UNK         0.3127 
    106 H106       27.7240    2.9614   -6.0380 H         1 UNK         0.0770 
    107 H107       24.6985    3.1527   -5.4699 H         1 UNK         0.0814 
    108 H108       25.6525    4.3648   -6.3145 H         1 UNK         0.0814 
    109 H109       25.9409    4.0608   -4.6140 H         1 UNK         0.0814 
    110 H110       26.6436    3.5815   -8.1922 H         1 UNK         0.2983 
    111 H111       26.1361    3.1837  -10.2919 H         1 UNK         0.0947 
    112 H112       23.8882    2.6497   -9.3895 H         1 UNK         0.0806 
    113 H113       24.3184    0.9485   -9.2545 H         1 UNK         0.0806 
    114 H114       24.2202    1.7117  -10.8333 H         1 UNK         0.0806 
    115 H115       28.5238    1.8722   -9.2459 H         1 UNK         0.3000 
    116 H116       29.1815    0.2558  -11.5470 H         1 UNK         0.0850 
    117 H117       30.0082   -1.6785  -10.1245 H         1 UNK         0.0810 
    118 H118       28.2641   -1.5188  -10.0194 H         1 UNK         0.0810 
    119 H119       29.2794   -0.9277   -8.7089 H         1 UNK         0.0810 
    120 H120       31.5525   -0.1282  -11.5495 H         1 UNK         0.3040 
    121 H121       33.0057    2.1389  -10.2819 H         1 UNK         0.0766 
    122 H122       33.0388    1.9598  -12.7658 H         1 UNK         0.0812 
    123 H123       33.7308    0.3408  -12.6573 H         1 UNK         0.0812 
    124 H124       34.6457    1.7339  -12.0983 H         1 UNK         0.0812 
    125 H125       32.6677   -1.2559   -9.8596 H         1 UNK         0.3205 
    126 H126       35.4163   -1.8639   -9.1414 H         1 UNK         0.0754 
    127 H127       32.8513   -3.5220   -8.8997 H         1 UNK         0.0769 
    128 H128       34.4930   -4.1310   -8.7324 H         1 UNK         0.0769 
    129 H129       33.9480   -3.5161  -10.2809 H         1 UNK         0.0769 
    130 H130       34.7007    0.2499   -7.5633 H         1 UNK         0.2981 
    131 H131       33.5741   -0.5955   -5.0417 H         1 UNK         0.0541 
    132 H132       36.7963   -0.9747   -6.0443 H         1 UNK         0.3459 
    133 H133       37.5077   -0.9624   -4.4486 H         1 UNK         0.3459 
    134 H134       33.6041    1.7351   -4.3995 H         1 UNK         0.0612 
    135 H135       34.8002    2.1328   -5.6068 H         1 UNK         0.0612 
    136 H136       31.0625    2.5217   -4.8991 H         1 UNK         0.0624 
    137 H137       30.2584    1.9185   -6.3261 H         1 UNK         0.0624 
@<TRIPOS>BOND
     1    1    2 1    
     2    1   72 1    
     3    1   73 1    
     4    1   74 1    
     5    2    3 2    
     6    2    4 am   BACKBONE|DICT|INTERRES
     7    4    5 1    
     8    4   75 1    
     9    5    6 1    
    10    5   35 1    
    11    5   76 1    
    12    6    7 1    
    13    6   77 1    
    14    6   78 1    
    15    7    8 1    
    16    8    9 1    
    17    8   79 1    
    18    8   80 1    
    19    9   10 ar   
    20    9   14 ar   
    21   10   11 ar   
    22   10   81 1    
    23   11   12 ar   
    24   11   71 1    
    25   12   13 ar   
    26   12   82 1    
    27   13   14 ar   
    28   13   15 1    
    29   14   83 1    
    30   15   16 1    
    31   15   84 1    
    32   15   85 1    
    33   16   17 1    
    34   17   18 1    
    35   17   86 1    
    36   17   87 1    
    37   18   19 1    
    38   18   37 1    
    39   18   88 1    
    40   19   20 am   BACKBONE|DICT|INTERRES
    41   19   89 1    
    42   20   21 2    
    43   20   22 1    
    44   22   23 1    
    45   22   24 1    
    46   22   90 1    
    47   23   91 1    
    48   23   92 1    
    49   23   93 1    
    50   24   25 am   BACKBONE|DICT|INTERRES
    51   24   94 1    
    52   25   26 2    
    53   25   27 1    
    54   27   28 1    
    55   27   29 1    
    56   27   95 1    
    57   28   96 1    
    58   28   97 1    
    59   28   98 1    
    60   29   30 am   BACKBONE|DICT|INTERRES
    61   29   99 1    
    62   30   31 2    
    63   30   32 1    
    64   32   33 1    
    65   32   34 1    
    66   32  100 1    
    67   33  101 1    
    68   33  102 1    
    69   33  103 1    
    70   34   35 am   BACKBONE|DICT|INTERRES
    71   34  104 1    
    72   35   36 2    
    73   37   38 2    
    74   37   39 am   BACKBONE|DICT|INTERRES
    75   39   40 1    
    76   39  105 1    
    77   40   41 1    
    78   40   42 1    
    79   40  106 1    
    80   41  107 1    
    81   41  108 1    
    82   41  109 1    
    83   42   43 2    
    84   42   44 am   BACKBONE|DICT|INTERRES
    85   44   45 1    
    86   44  110 1    
    87   45   46 1    
    88   45   47 1    
    89   45  111 1    
    90   46  112 1    
    91   46  113 1    
    92   46  114 1    
    93   47   48 2    
    94   47   49 am   BACKBONE|DICT|INTERRES
    95   49   50 1    
    96   49  115 1    
    97   50   51 1    
    98   50   52 1    
    99   50  116 1    
   100   51  117 1    
   101   51  118 1    
   102   51  119 1    
   103   52   53 2    
   104   52   54 am   BACKBONE|DICT|INTERRES
   105   54   55 1    
   106   54  120 1    
   107   55   56 1    
   108   55   57 1    
   109   55  121 1    
   110   56  122 1    
   111   56  123 1    
   112   56  124 1    
   113   57   58 2    
   114   57   59 am   BACKBONE|DICT|INTERRES
   115   59   60 1    
   116   59  125 1    
   117   60   61 1    
   118   60   62 1    
   119   60  126 1    
   120   61  127 1    
   121   61  128 1    
   122   61  129 1    
   123   62   63 2    
   124   62   64 am   BACKBONE|DICT|INTERRES
   125   64   65 1    
   126   64  130 1    
   127   65   66 1    
   128   65   69 1    
   129   65  131 1    
   130   66   67 am   BACKBONE|DICT|INTERRES
   131   66   68 2    
   132   67  132 1    
   133   67  133 1    
   134   69   70 1    
   135   69  134 1    
   136   69  135 1    
   137   70   71 1    
   138   71  136 1    
   139   71  137 1    
@<TRIPOS>SUBSTRUCTURE
     1 UNK         1 GROUP             0       ****    0 ROOT    
