@<TRIPOS>MOLECULE
3R137
137   139    1
SMALL
USER_CHARGES


@<TRIPOS>ATOM
      1 CA         28.5615   -6.7938   -5.9570 C.3       0 UNK        -0.2020 
      2 C          28.2872   -6.5135   -4.4874 C.2       0 UNK         0.4855 
      3 O          28.0320   -7.4437   -3.7223 O.2       0 UNK        -0.5197 
      4 N          28.3314   -5.2399   -4.0884 N.am      1 UNK        -0.4892 
      5 CA         28.0685   -4.7602   -2.7347 C.3       1 UNK         0.0835 
      6 C6         29.3090   -4.9395   -1.8191 C.3       12 UNK        -0.0855 
      7 S7         29.0590   -4.3698   -0.0966 S.3       12 UNK        -0.2931 
      8 C8         30.6373   -3.5501    0.3100 C.3       12 UNK         0.0378 
      9 C9         31.0218   -2.4534   -0.6759 C.ar      12 UNK        -0.0802 
     10 C10        32.0528   -2.6798   -1.5917 C.ar      12 UNK        -0.0944 
     11 C11        32.4210   -1.6940   -2.5092 C.ar      12 UNK        -0.0787 
     12 C12        31.7836   -0.4513   -2.4727 C.ar      12 UNK        -0.0862 
     13 C13        30.7472   -0.2085   -1.5651 C.ar      12 UNK        -0.0733 
     14 C14        30.3665   -1.2169   -0.6707 C.ar      12 UNK        -0.0832 
     15 C15        30.0590    1.1508   -1.5328 C.3       12 UNK         0.0240 
     16 S16        28.6530    1.2491   -2.6876 S.3       12 UNK        -0.2522 
     17 C17        29.4887    1.5762   -4.2697 C.3       12 UNK        -0.0967 
     18 CA         28.5997    1.4727   -5.5301 C.3       5 UNK         0.0660 
     19 N          28.0485    0.1350   -5.7763 N.am      5 UNK        -0.4015 
     20 C          27.7769   -0.3075   -7.0137 C.2       4 UNK         0.4946 
     21 O          28.0922    0.3114   -8.0314 O.2       4 UNK        -0.5353 
     22 CA         27.0283   -1.6379   -7.1682 C.3       4 UNK         0.0277 
     23 CB         28.0066   -2.8143   -7.2746 C.3       4 UNK        -0.1981 
     24 N          26.0745   -1.8772   -6.0868 N.am      4 UNK        -0.4209 
     25 C          24.8647   -1.3030   -6.0219 C.2       3 UNK         0.4942 
     26 O          24.4522   -0.4918   -6.8483 O.2       3 UNK        -0.5208 
     27 CA         23.9690   -1.6715   -4.8265 C.3       3 UNK         0.0250 
     28 CB         23.1127   -2.9039   -5.1573 C.3       3 UNK        -0.1990 
     29 N          24.7201   -1.9159   -3.5946 N.am      3 UNK        -0.4232 
     30 C          25.4733   -0.9978   -2.9743 C.2       2 UNK         0.4993 
     31 O          25.5800    0.1666   -3.3568 O.2       2 UNK        -0.5286 
     32 CA         26.2843   -1.4783   -1.7608 C.3       2 UNK         0.0209 
     33 CB         25.4569   -1.3528   -0.4724 C.3       2 UNK        -0.1931 
     34 N          26.7964   -2.8469   -1.8841 N.am      2 UNK        -0.4546 
     35 C          27.5928   -3.3008   -2.8633 C.2       1 UNK         0.5154 
     36 O          27.9238   -2.6322   -3.8490 O.2       1 UNK        -0.5181 
     37 C          27.5185    2.5660   -5.6420 C.2       5 UNK         0.5014 
     38 O          27.8217    3.6389   -6.1643 O.2       5 UNK        -0.5248 
     39 N          26.2685    2.2668   -5.2499 N.am      6 UNK        -0.4434 
     40 CA         25.1020    3.1277   -5.4881 C.3       6 UNK         0.0363 
     41 CB         23.8735    2.5632   -4.7587 C.3       6 UNK        -0.1936 
     42 C          24.7984    3.3284   -6.9855 C.2       6 UNK         0.5081 
     43 O          24.4524    4.4384   -7.3893 O.2       6 UNK        -0.5248 
     44 N          24.9792    2.2697   -7.7887 N.am      7 UNK        -0.4718 
     45 CA         24.8918    2.2952   -9.2539 C.3       7 UNK         0.0273 
     46 CB         24.6904    0.8594   -9.7671 C.3       7 UNK        -0.1935 
     47 C          26.1103    2.9414   -9.9448 C.2       7 UNK         0.5018 
     48 O          26.0893    3.0845  -11.1678 O.2       7 UNK        -0.5186 
     49 N          27.1452    3.3007   -9.1700 N.am      8 UNK        -0.4240 
     50 CA         28.4128    3.9094   -9.5880 C.3       8 UNK         0.0235 
     51 CB         28.1841    5.2914  -10.2379 C.3       8 UNK        -0.2000 
     52 C          29.3097    2.9871  -10.4378 C.2       8 UNK         0.4941 
     53 O          30.1829    3.4864  -11.1499 O.2       8 UNK        -0.5273 
     54 N          29.1236    1.6636  -10.3216 N.am      9 UNK        -0.4262 
     55 CA         30.0581    0.6591  -10.8365 C.3       9 UNK         0.0264 
     56 CB         29.3415   -0.6896  -11.0201 C.3       9 UNK        -0.1955 
     57 C          31.2653    0.5267   -9.8936 C.2       9 UNK         0.5031 
     58 O          32.3985    0.4899  -10.3725 O.2       9 UNK        -0.5390 
     59 N          30.9770    0.5105   -8.5806 N.am      10 UNK        -0.4204 
     60 CA         31.8935    0.5956   -7.4339 C.3       10 UNK         0.0237 
     61 CB         32.2861    2.0718   -7.2149 C.3       10 UNK        -0.1985 
     62 C          33.1308   -0.3291   -7.5293 C.2       10 UNK         0.4970 
     63 O          34.2399    0.1673   -7.7267 O.2       10 UNK        -0.4914 
     64 N          32.9854   -1.6529   -7.4027 N.am      11 UNK        -0.4285 
     65 CA         31.7732   -2.4223   -7.0797 C.3       11 UNK         0.1007 
     66 C          31.6842   -3.7689   -7.8558 C.2       11 UNK         0.5703 
     67 N          32.4809   -3.9874   -8.8961 N.am      11 UNK        -0.7361 
     68 O          30.8629   -4.6212   -7.5305 O.2       11 UNK        -0.4986 
     69 C69        31.5701   -2.5700   -5.5447 C.3       12 UNK        -0.0947 
     70 S70        32.9978   -3.3188   -4.6825 S.3       12 UNK        -0.2240 
     71 C71        33.4970   -1.9823   -3.5473 C.3       12 UNK         0.0194 
     72 H72        27.7507   -7.3813   -6.3870 H         1 UNK         0.0906 
     73 H73        28.6562   -5.8755   -6.5358 H         1 UNK         0.0906 
     74 H74        29.4876   -7.3576   -6.0651 H         1 UNK         0.0906 
     75 H75        28.5140   -4.4916   -4.7457 H         1 UNK         0.3140 
     76 H76        27.2395   -5.3394   -2.3212 H         1 UNK         0.1085 
     77 H77        30.1651   -4.4404   -2.2705 H         1 UNK         0.0836 
     78 H78        29.5803   -5.9952   -1.7739 H         1 UNK         0.0836 
     79 H79        31.4206   -4.3079    0.3651 H         1 UNK         0.0731 
     80 H80        30.5624   -3.1223    1.3108 H         1 UNK         0.0731 
     81 H81        32.5557   -3.6372   -1.6119 H         1 UNK         0.1312 
     82 H82        32.0921    0.3251   -3.1580 H         1 UNK         0.1406 
     83 H83        29.5654   -1.0397    0.0342 H         1 UNK         0.1631 
     84 H84        30.7739    1.9445   -1.7553 H         1 UNK         0.0717 
     85 H85        29.6921    1.3520   -0.5253 H         1 UNK         0.0717 
     86 H86        29.9529    2.5631   -4.2169 H         1 UNK         0.0934 
     87 H87        30.3078    0.8688   -4.3780 H         1 UNK         0.0934 
     88 H88        29.2828    1.6893   -6.3531 H         1 UNK         0.0739 
     89 H89        27.7928   -0.4205   -4.9693 H         1 UNK         0.3093 
     90 H90        26.4742   -1.5901   -8.1081 H         1 UNK         0.0818 
     91 H91        28.6682   -2.6926   -8.1325 H         1 UNK         0.0819 
     92 H92        28.6309   -2.9042   -6.3877 H         1 UNK         0.0819 
     93 H93        27.4781   -3.7576   -7.4117 H         1 UNK         0.0819 
     94 H94        26.3874   -2.4607   -5.3207 H         1 UNK         0.3041 
     95 H95        23.2990   -0.8288   -4.6449 H         1 UNK         0.0784 
     96 H96        22.5256   -2.7382   -6.0619 H         1 UNK         0.0793 
     97 H97        23.7255   -3.7906   -5.3246 H         1 UNK         0.0793 
     98 H98        22.4098   -3.1266   -4.3543 H         1 UNK         0.0793 
     99 H99        24.6888   -2.8492   -3.2111 H         1 UNK         0.3024 
    100 H100       27.1513   -0.8265   -1.6665 H         1 UNK         0.1171 
    101 H101       26.0556   -1.5888    0.4078 H         1 UNK         0.0786 
    102 H102       25.0867   -0.3342   -0.3456 H         1 UNK         0.0786 
    103 H103       24.5916   -2.0166   -0.4796 H         1 UNK         0.0786 
    104 H104       26.6025   -3.4647   -1.1083 H         1 UNK         0.2977 
    105 H105       26.0980    1.4004   -4.7433 H         1 UNK         0.3127 
    106 H106       25.3257    4.1087   -5.0637 H         1 UNK         0.0770 
    107 H107       23.6062    1.5730   -5.1274 H         1 UNK         0.0814 
    108 H108       23.0056    3.2089   -4.8984 H         1 UNK         0.0814 
    109 H109       24.0503    2.4850   -3.6859 H         1 UNK         0.0814 
    110 H110       25.1640    1.3655   -7.3661 H         1 UNK         0.2983 
    111 H111       24.0162    2.8840   -9.5356 H         1 UNK         0.0947 
    112 H112       24.5789    0.8394  -10.8520 H         1 UNK         0.0806 
    113 H113       23.7921    0.4092   -9.3446 H         1 UNK         0.0806 
    114 H114       25.5376    0.2210   -9.5147 H         1 UNK         0.0806 
    115 H115       27.0557    3.1478   -8.1729 H         1 UNK         0.3000 
    116 H116       28.9698    4.0787   -8.6653 H         1 UNK         0.0850 
    117 H117       29.1289    5.8158  -10.3859 H         1 UNK         0.0810 
    118 H118       27.5592    5.9262   -9.6097 H         1 UNK         0.0810 
    119 H119       27.7055    5.2074  -11.2139 H         1 UNK         0.0810 
    120 H120       28.4165    1.3297   -9.6731 H         1 UNK         0.3040 
    121 H121       30.4228    0.9815  -11.8143 H         1 UNK         0.0766 
    122 H122       28.4990   -0.5978  -11.7056 H         1 UNK         0.0812 
    123 H123       28.9632   -1.0890  -10.0797 H         1 UNK         0.0812 
    124 H124       30.0200   -1.4342  -11.4384 H         1 UNK         0.0812 
    125 H125       29.9876    0.5000   -8.3476 H         1 UNK         0.3205 
    126 H126       31.3313    0.2854   -6.5544 H         1 UNK         0.0754 
    127 H127       32.9256    2.1819   -6.3381 H         1 UNK         0.0769 
    128 H128       31.4097    2.7000   -7.0564 H         1 UNK         0.0769 
    129 H129       32.8306    2.4743   -8.0701 H         1 UNK         0.0769 
    130 H130       33.8165   -2.2216   -7.4710 H         1 UNK         0.2981 
    131 H131       30.9094   -1.8787   -7.4575 H         1 UNK         0.0541 
    132 H132       33.1232   -3.2829   -9.2211 H         1 UNK         0.3459 
    133 H133       32.4045   -4.8624   -9.3905 H         1 UNK         0.3459 
    134 H134       31.3592   -1.5923   -5.1128 H         1 UNK         0.0612 
    135 H135       30.6901   -3.1729   -5.3180 H         1 UNK         0.0612 
    136 H136       33.7343   -1.0904   -4.1294 H         1 UNK         0.0624 
    137 H137       34.4162   -2.2751   -3.0382 H         1 UNK         0.0624 
@<TRIPOS>BOND
     1    1    2 1    
     2    1   72 1    
     3    1   73 1    
     4    1   74 1    
     5    2    3 2    
     6    2    4 am   BACKBONE|DICT|INTERRES
     7    4    5 1    
     8    4   75 1    
     9    5    6 1    
    10    5   35 1    
    11    5   76 1    
    12    6    7 1    
    13    6   77 1    
    14    6   78 1    
    15    7    8 1    
    16    8    9 1    
    17    8   79 1    
    18    8   80 1    
    19    9   10 ar   
    20    9   14 ar   
    21   10   11 ar   
    22   10   81 1    
    23   11   12 ar   
    24   11   71 1    
    25   12   13 ar   
    26   12   82 1    
    27   13   14 ar   
    28   13   15 1    
    29   14   83 1    
    30   15   16 1    
    31   15   84 1    
    32   15   85 1    
    33   16   17 1    
    34   17   18 1    
    35   17   86 1    
    36   17   87 1    
    37   18   19 1    
    38   18   37 1    
    39   18   88 1    
    40   19   20 am   BACKBONE|DICT|INTERRES
    41   19   89 1    
    42   20   21 2    
    43   20   22 1    
    44   22   23 1    
    45   22   24 1    
    46   22   90 1    
    47   23   91 1    
    48   23   92 1    
    49   23   93 1    
    50   24   25 am   BACKBONE|DICT|INTERRES
    51   24   94 1    
    52   25   26 2    
    53   25   27 1    
    54   27   28 1    
    55   27   29 1    
    56   27   95 1    
    57   28   96 1    
    58   28   97 1    
    59   28   98 1    
    60   29   30 am   BACKBONE|DICT|INTERRES
    61   29   99 1    
    62   30   31 2    
    63   30   32 1    
    64   32   33 1    
    65   32   34 1    
    66   32  100 1    
    67   33  101 1    
    68   33  102 1    
    69   33  103 1    
    70   34   35 am   BACKBONE|DICT|INTERRES
    71   34  104 1    
    72   35   36 2    
    73   37   38 2    
    74   37   39 am   BACKBONE|DICT|INTERRES
    75   39   40 1    
    76   39  105 1    
    77   40   41 1    
    78   40   42 1    
    79   40  106 1    
    80   41  107 1    
    81   41  108 1    
    82   41  109 1    
    83   42   43 2    
    84   42   44 am   BACKBONE|DICT|INTERRES
    85   44   45 1    
    86   44  110 1    
    87   45   46 1    
    88   45   47 1    
    89   45  111 1    
    90   46  112 1    
    91   46  113 1    
    92   46  114 1    
    93   47   48 2    
    94   47   49 am   BACKBONE|DICT|INTERRES
    95   49   50 1    
    96   49  115 1    
    97   50   51 1    
    98   50   52 1    
    99   50  116 1    
   100   51  117 1    
   101   51  118 1    
   102   51  119 1    
   103   52   53 2    
   104   52   54 am   BACKBONE|DICT|INTERRES
   105   54   55 1    
   106   54  120 1    
   107   55   56 1    
   108   55   57 1    
   109   55  121 1    
   110   56  122 1    
   111   56  123 1    
   112   56  124 1    
   113   57   58 2    
   114   57   59 am   BACKBONE|DICT|INTERRES
   115   59   60 1    
   116   59  125 1    
   117   60   61 1    
   118   60   62 1    
   119   60  126 1    
   120   61  127 1    
   121   61  128 1    
   122   61  129 1    
   123   62   63 2    
   124   62   64 am   BACKBONE|DICT|INTERRES
   125   64   65 1    
   126   64  130 1    
   127   65   66 1    
   128   65   69 1    
   129   65  131 1    
   130   66   67 am   BACKBONE|DICT|INTERRES
   131   66   68 2    
   132   67  132 1    
   133   67  133 1    
   134   69   70 1    
   135   69  134 1    
   136   69  135 1    
   137   70   71 1    
   138   71  136 1    
   139   71  137 1    
@<TRIPOS>SUBSTRUCTURE
     1 UNK         1 GROUP             0       ****    0 ROOT    
