@<TRIPOS>MOLECULE
3R137
137   139    1
SMALL
USER_CHARGES


@<TRIPOS>ATOM
      1 CA         27.2727   -6.5460    0.6081 C.3       0 UNK        -0.2020 
      2 C          27.5533   -5.5347   -0.4935 C.2       0 UNK         0.4855 
      3 O          28.1870   -4.5114   -0.2369 O.2       0 UNK        -0.5197 
      4 N          27.0846   -5.8121   -1.7138 N.am      1 UNK        -0.4892 
      5 CA         27.1971   -4.9497   -2.8898 C.3       1 UNK         0.0835 
      6 C6         28.6306   -4.9256   -3.4995 C.3       12 UNK        -0.0855 
      7 S7         29.0813   -3.2562   -4.0868 S.3       12 UNK        -0.2931 
      8 C8         30.2588   -2.7774   -2.7827 C.3       12 UNK         0.0378 
      9 C9         30.5999   -1.2967   -2.8314 C.ar      12 UNK        -0.0802 
     10 C10        31.4949   -0.8118   -3.7884 C.ar      12 UNK        -0.0944 
     11 C11        31.8443    0.5415   -3.8143 C.ar      12 UNK        -0.0787 
     12 C12        31.2906    1.4139   -2.8736 C.ar      12 UNK        -0.0862 
     13 C13        30.3835    0.9429   -1.9185 C.ar      12 UNK        -0.0733 
     14 C14        30.0450   -0.4140   -1.8995 C.ar      12 UNK        -0.0832 
     15 C15        29.7555    1.9031   -0.9179 C.3       12 UNK         0.0240 
     16 S16        28.0083    2.2460   -1.3083 S.3       12 UNK        -0.2522 
     17 C17        28.1332    2.9569   -2.9847 C.3       12 UNK        -0.0967 
     18 CA         27.8078    1.9008   -4.0786 C.3       5 UNK         0.0660 
     19 N          26.4241    1.4139   -4.0010 N.am      5 UNK        -0.4015 
     20 C          25.3000    2.0823   -4.2891 C.2       4 UNK         0.4946 
     21 O          25.2747    3.1710   -4.8676 O.2       4 UNK        -0.5353 
     22 CA         23.9791    1.4256   -3.8359 C.3       4 UNK         0.0277 
     23 CB         22.8288    2.4470   -3.7532 C.3       4 UNK        -0.1981 
     24 N          23.5546    0.3138   -4.6893 N.am      4 UNK        -0.4209 
     25 C          24.1664   -0.8716   -4.7927 C.2       3 UNK         0.4942 
     26 O          25.1952   -1.1674   -4.1751 O.2       3 UNK        -0.5208 
     27 CA         23.5185   -1.9003   -5.7336 C.3       3 UNK         0.0250 
     28 CB         23.3233   -1.3408   -7.1600 C.3       3 UNK        -0.1990 
     29 N          24.3858   -3.0720   -5.7540 N.am      3 UNK        -0.4232 
     30 C          24.1501   -4.2669   -6.3041 C.2       2 UNK         0.4993 
     31 O          23.0954   -4.5758   -6.8595 O.2       2 UNK        -0.5286 
     32 CA         25.2962   -5.2912   -6.2351 C.3       2 UNK         0.0209 
     33 CB         26.0397   -5.3521   -7.5801 C.3       2 UNK        -0.1931 
     34 N          26.2599   -4.9951   -5.1674 N.am      2 UNK        -0.4546 
     35 C          26.0936   -5.3544   -3.8881 C.2       1 UNK         0.5154 
     36 O          25.1163   -5.9944   -3.4877 O.2       1 UNK        -0.5181 
     37 C          28.1850    2.3653   -5.4980 C.2       5 UNK         0.5014 
     38 O          28.5578    1.5326   -6.3253 O.2       5 UNK        -0.5248 
     39 N          28.0504    3.6693   -5.7794 N.am      6 UNK        -0.4434 
     40 CA         28.2621    4.2712   -7.0995 C.3       6 UNK         0.0363 
     41 CB         28.1456    5.7991   -6.9845 C.3       6 UNK        -0.1936 
     42 C          27.3047    3.7367   -8.1818 C.2       6 UNK         0.5081 
     43 O          27.6609    3.7601   -9.3594 O.2       6 UNK        -0.5248 
     44 N          26.1287    3.2376   -7.7714 N.am      7 UNK        -0.4718 
     45 CA         25.1877    2.5319   -8.6444 C.3       7 UNK         0.0273 
     46 CB         23.8210    2.4376   -7.9489 C.3       7 UNK        -0.1935 
     47 C          25.6822    1.1319   -9.0566 C.2       7 UNK         0.5018 
     48 O          25.2896    0.6530  -10.1208 O.2       7 UNK        -0.5186 
     49 N          26.5205    0.5010   -8.2198 N.am      8 UNK        -0.4240 
     50 CA         27.1708   -0.7777   -8.5123 C.3       8 UNK         0.0235 
     51 CB         27.4506   -1.5419   -7.2055 C.3       8 UNK        -0.2000 
     52 C          28.4735   -0.5554   -9.2896 C.2       8 UNK         0.4941 
     53 O          28.7066   -1.2378  -10.2871 O.2       8 UNK        -0.5273 
     54 N          29.2952    0.3888   -8.8024 N.am      9 UNK        -0.4262 
     55 CA         30.6059    0.7922   -9.3288 C.3       9 UNK         0.0264 
     56 CB         30.4613    1.4567  -10.7138 C.3       9 UNK        -0.1955 
     57 C          31.6560   -0.3387   -9.3181 C.2       9 UNK         0.5031 
     58 O          32.6058   -0.3019  -10.1035 O.2       9 UNK        -0.5390 
     59 N          31.4964   -1.3062   -8.4012 N.am      10 UNK        -0.4204 
     60 CA         32.3517   -2.4907   -8.2436 C.3       10 UNK         0.0237 
     61 CB         31.7046   -3.4436   -7.2239 C.3       10 UNK        -0.1985 
     62 C          33.8126   -2.1813   -7.8591 C.2       10 UNK         0.4970 
     63 O          34.6779   -3.0391   -8.0372 O.2       10 UNK        -0.4914 
     64 N          34.0589   -0.9641   -7.3620 N.am      11 UNK        -0.4285 
     65 CA         35.3873   -0.3953   -7.0986 C.3       11 UNK         0.1007 
     66 C          36.1937   -0.0479   -8.3854 C.2       11 UNK         0.5703 
     67 N          35.5856    0.0052   -9.5666 N.am      11 UNK        -0.7361 
     68 O          37.4000    0.1727   -8.3085 O.2       11 UNK        -0.4986 
     69 C69        35.2974    0.8383   -6.1597 C.3       12 UNK        -0.0947 
     70 S70        34.5013    0.4561   -4.5639 S.3       12 UNK        -0.2240 
     71 C71        32.8097    1.0548   -4.8695 C.3       12 UNK         0.0194 
     72 H72        26.6982   -6.0796    1.4080 H         1 UNK         0.0906 
     73 H73        26.7091   -7.4037    0.2412 H         1 UNK         0.0906 
     74 H74        28.2091   -6.9110    1.0292 H         1 UNK         0.0906 
     75 H75        26.5004   -6.6262   -1.8658 H         1 UNK         0.3140 
     76 H76        26.9315   -3.9428   -2.5578 H         1 UNK         0.1085 
     77 H77        29.3668   -5.2381   -2.7575 H         1 UNK         0.0836 
     78 H78        28.7469   -5.6439   -4.3135 H         1 UNK         0.0836 
     79 H79        29.8395   -3.0295   -1.8076 H         1 UNK         0.0731 
     80 H80        31.1705   -3.3678   -2.8865 H         1 UNK         0.0731 
     81 H81        31.9313   -1.4904   -4.5071 H         1 UNK         0.1312 
     82 H82        31.5573    2.4618   -2.8918 H         1 UNK         0.1406 
     83 H83        29.3443   -0.7795   -1.1606 H         1 UNK         0.1631 
     84 H84        30.3072    2.8438   -0.8816 H         1 UNK         0.0717 
     85 H85        29.8171    1.4747    0.0835 H         1 UNK         0.0717 
     86 H86        27.4457    3.8026   -3.0395 H         1 UNK         0.0934 
     87 H87        29.1338    3.3717   -3.1200 H         1 UNK         0.0934 
     88 H88        28.4312    1.0250   -3.8955 H         1 UNK         0.0739 
     89 H89        26.3138    0.4669   -3.6535 H         1 UNK         0.3093 
     90 H90        24.1425    1.0351   -2.8288 H         1 UNK         0.0818 
     91 H91        21.9287    2.0001   -3.3307 H         1 UNK         0.0819 
     92 H92        23.1001    3.2886   -3.1143 H         1 UNK         0.0819 
     93 H93        22.5751    2.8527   -4.7336 H         1 UNK         0.0819 
     94 H94        22.7169    0.4686   -5.2310 H         1 UNK         0.3041 
     95 H95        22.5530   -2.1866   -5.3125 H         1 UNK         0.0784 
     96 H96        22.6817   -0.4598   -7.1669 H         1 UNK         0.0793 
     97 H97        24.2729   -1.0619   -7.6131 H         1 UNK         0.0793 
     98 H98        22.8506   -2.0714   -7.8160 H         1 UNK         0.0793 
     99 H99        25.2516   -2.9250   -5.2486 H         1 UNK         0.3024 
    100 H100       24.8468   -6.2702   -6.0511 H         1 UNK         0.1171 
    101 H101       25.3592   -5.6254   -8.3878 H         1 UNK         0.0786 
    102 H102       26.8341   -6.0986   -7.5620 H         1 UNK         0.0786 
    103 H103       26.4844   -4.3925   -7.8433 H         1 UNK         0.0786 
    104 H104       27.0932   -4.4810   -5.4210 H         1 UNK         0.2977 
    105 H105       27.6651    4.2730   -5.0674 H         1 UNK         0.3127 
    106 H106       29.2781    4.0257   -7.4160 H         1 UNK         0.0770 
    107 H107       27.1531    6.1040   -6.6497 H         1 UNK         0.0814 
    108 H108       28.3252    6.2773   -7.9486 H         1 UNK         0.0814 
    109 H109       28.8770    6.2025   -6.2841 H         1 UNK         0.0814 
    110 H110       25.8952    3.2855   -6.7830 H         1 UNK         0.2983 
    111 H111       25.0649    3.1172   -9.5585 H         1 UNK         0.0947 
    112 H112       23.0873    1.9509   -8.5931 H         1 UNK         0.0806 
    113 H113       23.4318    3.4253   -7.7014 H         1 UNK         0.0806 
    114 H114       23.8796    1.8611   -7.0271 H         1 UNK         0.0806 
    115 H115       26.8480    0.9946   -7.3987 H         1 UNK         0.3000 
    116 H116       26.5074   -1.3914   -9.1262 H         1 UNK         0.0850 
    117 H117       27.9187   -2.5052   -7.4097 H         1 UNK         0.0810 
    118 H118       28.1177   -0.9996   -6.5358 H         1 UNK         0.0810 
    119 H119       26.5313   -1.7352   -6.6597 H         1 UNK         0.0810 
    120 H120       29.0112    0.8585   -7.9425 H         1 UNK         0.3040 
    121 H121       30.9799    1.5518   -8.6407 H         1 UNK         0.0766 
    122 H122       29.7259    2.2611  -10.6917 H         1 UNK         0.0812 
    123 H123       30.1528    0.7406  -11.4759 H         1 UNK         0.0812 
    124 H124       31.4062    1.8921  -11.0411 H         1 UNK         0.0812 
    125 H125       30.6899   -1.2488   -7.7968 H         1 UNK         0.3205 
    126 H126       32.3824   -2.9984   -9.2099 H         1 UNK         0.0754 
    127 H127       32.2999   -4.3495   -7.1014 H         1 UNK         0.0769 
    128 H128       30.7103   -3.7547   -7.5458 H         1 UNK         0.0769 
    129 H129       31.6077   -2.9836   -6.2410 H         1 UNK         0.0769 
    130 H130       33.2831   -0.3305   -7.2641 H         1 UNK         0.2981 
    131 H131       35.9670   -1.1613   -6.5801 H         1 UNK         0.0541 
    132 H132       36.1278    0.2281  -10.3858 H         1 UNK         0.3459 
    133 H133       34.5898   -0.1655   -9.6558 H         1 UNK         0.3459 
    134 H134       34.7656    1.6584   -6.6460 H         1 UNK         0.0612 
    135 H135       36.2967    1.2170   -5.9367 H         1 UNK         0.0612 
    136 H136       32.4635    0.7262   -5.8493 H         1 UNK         0.0624 
    137 H137       32.8174    2.1456   -4.8953 H         1 UNK         0.0624 
@<TRIPOS>BOND
     1    1    2 1    
     2    1   72 1    
     3    1   73 1    
     4    1   74 1    
     5    2    3 2    
     6    2    4 am   BACKBONE|DICT|INTERRES
     7    4    5 1    
     8    4   75 1    
     9    5    6 1    
    10    5   35 1    
    11    5   76 1    
    12    6    7 1    
    13    6   77 1    
    14    6   78 1    
    15    7    8 1    
    16    8    9 1    
    17    8   79 1    
    18    8   80 1    
    19    9   10 ar   
    20    9   14 ar   
    21   10   11 ar   
    22   10   81 1    
    23   11   12 ar   
    24   11   71 1    
    25   12   13 ar   
    26   12   82 1    
    27   13   14 ar   
    28   13   15 1    
    29   14   83 1    
    30   15   16 1    
    31   15   84 1    
    32   15   85 1    
    33   16   17 1    
    34   17   18 1    
    35   17   86 1    
    36   17   87 1    
    37   18   19 1    
    38   18   37 1    
    39   18   88 1    
    40   19   20 am   BACKBONE|DICT|INTERRES
    41   19   89 1    
    42   20   21 2    
    43   20   22 1    
    44   22   23 1    
    45   22   24 1    
    46   22   90 1    
    47   23   91 1    
    48   23   92 1    
    49   23   93 1    
    50   24   25 am   BACKBONE|DICT|INTERRES
    51   24   94 1    
    52   25   26 2    
    53   25   27 1    
    54   27   28 1    
    55   27   29 1    
    56   27   95 1    
    57   28   96 1    
    58   28   97 1    
    59   28   98 1    
    60   29   30 am   BACKBONE|DICT|INTERRES
    61   29   99 1    
    62   30   31 2    
    63   30   32 1    
    64   32   33 1    
    65   32   34 1    
    66   32  100 1    
    67   33  101 1    
    68   33  102 1    
    69   33  103 1    
    70   34   35 am   BACKBONE|DICT|INTERRES
    71   34  104 1    
    72   35   36 2    
    73   37   38 2    
    74   37   39 am   BACKBONE|DICT|INTERRES
    75   39   40 1    
    76   39  105 1    
    77   40   41 1    
    78   40   42 1    
    79   40  106 1    
    80   41  107 1    
    81   41  108 1    
    82   41  109 1    
    83   42   43 2    
    84   42   44 am   BACKBONE|DICT|INTERRES
    85   44   45 1    
    86   44  110 1    
    87   45   46 1    
    88   45   47 1    
    89   45  111 1    
    90   46  112 1    
    91   46  113 1    
    92   46  114 1    
    93   47   48 2    
    94   47   49 am   BACKBONE|DICT|INTERRES
    95   49   50 1    
    96   49  115 1    
    97   50   51 1    
    98   50   52 1    
    99   50  116 1    
   100   51  117 1    
   101   51  118 1    
   102   51  119 1    
   103   52   53 2    
   104   52   54 am   BACKBONE|DICT|INTERRES
   105   54   55 1    
   106   54  120 1    
   107   55   56 1    
   108   55   57 1    
   109   55  121 1    
   110   56  122 1    
   111   56  123 1    
   112   56  124 1    
   113   57   58 2    
   114   57   59 am   BACKBONE|DICT|INTERRES
   115   59   60 1    
   116   59  125 1    
   117   60   61 1    
   118   60   62 1    
   119   60  126 1    
   120   61  127 1    
   121   61  128 1    
   122   61  129 1    
   123   62   63 2    
   124   62   64 am   BACKBONE|DICT|INTERRES
   125   64   65 1    
   126   64  130 1    
   127   65   66 1    
   128   65   69 1    
   129   65  131 1    
   130   66   67 am   BACKBONE|DICT|INTERRES
   131   66   68 2    
   132   67  132 1    
   133   67  133 1    
   134   69   70 1    
   135   69  134 1    
   136   69  135 1    
   137   70   71 1    
   138   71  136 1    
   139   71  137 1    
@<TRIPOS>SUBSTRUCTURE
     1 UNK         1 GROUP             0       ****    0 ROOT    
