@<TRIPOS>MOLECULE
3R137
137   139    1
SMALL
USER_CHARGES


@<TRIPOS>ATOM
      1 CA         24.4169   -7.8530   -0.0684 C.3       0 UNK        -0.2020 
      2 C          24.9894   -6.4606   -0.2870 C.2       0 UNK         0.4855 
      3 O          24.9969   -5.6504    0.6399 O.2       0 UNK        -0.5197 
      4 N          25.4720   -6.1775   -1.5048 N.am      1 UNK        -0.4892 
      5 CA         26.0374   -4.8816   -1.9024 C.3       1 UNK         0.0835 
      6 C6         26.8170   -5.0080   -3.2367 C.3       12 UNK        -0.0855 
      7 S7         27.8850   -3.5726   -3.5966 S.3       12 UNK        -0.2931 
      8 C8         29.5142   -4.2141   -3.1054 C.3       12 UNK         0.0378 
      9 C9         30.6000   -3.1748   -3.3351 C.ar      12 UNK        -0.0802 
     10 C10        31.1810   -3.0379   -4.5977 C.ar      12 UNK        -0.0944 
     11 C11        32.1693   -2.0786   -4.8378 C.ar      12 UNK        -0.0787 
     12 C12        32.5909   -1.2630   -3.7778 C.ar      12 UNK        -0.0862 
     13 C13        32.0195   -1.3910   -2.5082 C.ar      12 UNK        -0.0733 
     14 C14        31.0247   -2.3491   -2.2919 C.ar      12 UNK        -0.0832 
     15 C15        32.4729   -0.4938   -1.3666 C.3       12 UNK         0.0240 
     16 S16        31.1820    0.6999   -0.8987 S.3       12 UNK        -0.2522 
     17 C17        31.2326    1.8976   -2.2780 C.3       12 UNK        -0.0967 
     18 CA         30.2656    1.5660   -3.4502 C.3       5 UNK         0.0660 
     19 N          28.9141    1.2419   -2.9799 N.am      5 UNK        -0.4015 
     20 C          28.0079    0.5261   -3.6580 C.2       4 UNK         0.4946 
     21 O          28.2300    0.0443   -4.7710 O.2       4 UNK        -0.5353 
     22 CA         26.6456    0.3297   -2.9639 C.3       4 UNK         0.0277 
     23 CB         25.9879    1.6746   -2.5816 C.3       4 UNK        -0.1981 
     24 N          25.7162   -0.5073   -3.7327 N.am      4 UNK        -0.4209 
     25 C          25.1377   -0.2409   -4.9165 C.2       3 UNK         0.4942 
     26 O          25.2508    0.8258   -5.5223 O.2       3 UNK        -0.5208 
     27 CA         24.2670   -1.3509   -5.5408 C.3       3 UNK         0.0250 
     28 CB         25.0478   -2.0929   -6.6379 C.3       3 UNK        -0.1990 
     29 N          23.7771   -2.3328   -4.5708 N.am      3 UNK        -0.4232 
     30 C          22.8534   -2.0982   -3.6280 C.2       2 UNK         0.4993 
     31 O          22.2202   -1.0463   -3.5352 O.2       2 UNK        -0.5286 
     32 CA         22.6114   -3.2192   -2.5976 C.3       2 UNK         0.0209 
     33 CB         21.3626   -4.0347   -2.9703 C.3       2 UNK        -0.1931 
     34 N          23.7501   -4.1324   -2.4251 N.am      2 UNK        -0.4546 
     35 C          24.9625   -3.7746   -1.9721 C.2       1 UNK         0.5154 
     36 O          25.2468   -2.6246   -1.6354 O.2       1 UNK        -0.5181 
     37 C          30.2033    2.7026   -4.4963 C.2       5 UNK         0.5014 
     38 O          30.6730    3.8117   -4.2335 O.2       5 UNK        -0.5248 
     39 N          29.5594    2.4274   -5.6342 N.am      6 UNK        -0.4434 
     40 CA         29.1956    3.3966   -6.6619 C.3       6 UNK         0.0363 
     41 CB         27.7612    3.8868   -6.3826 C.3       6 UNK        -0.1936 
     42 C          29.3110    2.7682   -8.0548 C.2       6 UNK         0.5081 
     43 O          29.6392    1.5846   -8.1855 O.2       6 UNK        -0.5248 
     44 N          29.0292    3.5792   -9.0845 N.am      7 UNK        -0.4718 
     45 CA         29.0868    3.2189  -10.5067 C.3       7 UNK         0.0273 
     46 CB         28.7335    4.4478  -11.3584 C.3       7 UNK        -0.1935 
     47 C          28.2024    2.0226  -10.8959 C.2       7 UNK         0.5018 
     48 O          28.5740    1.2763  -11.8006 O.2       7 UNK        -0.5186 
     49 N          27.0982    1.8149  -10.1642 N.am      8 UNK        -0.4240 
     50 CA         26.2164    0.6481  -10.2755 C.3       8 UNK         0.0235 
     51 CB         25.0059    0.8416   -9.3478 C.3       8 UNK        -0.2000 
     52 C          26.9146   -0.6947   -9.9790 C.2       8 UNK         0.4941 
     53 O          26.4922   -1.7172  -10.5194 O.2       8 UNK        -0.5273 
     54 N          27.9717   -0.6665   -9.1553 N.am      9 UNK        -0.4262 
     55 CA         28.8355   -1.8080   -8.8483 C.3       9 UNK         0.0264 
     56 CB         28.9932   -1.8994   -7.3227 C.3       9 UNK        -0.1955 
     57 C          30.2145   -1.6894   -9.5278 C.2       9 UNK         0.5031 
     58 O          31.0777   -2.5277   -9.2668 O.2       9 UNK        -0.5390 
     59 N          30.4072   -0.6599  -10.3681 N.am      10 UNK        -0.4204 
     60 CA         31.6528   -0.2662  -11.0374 C.3       10 UNK         0.0237 
     61 CB         32.1373   -1.3609  -12.0132 C.3       10 UNK        -0.1985 
     62 C          32.7568    0.2201  -10.0726 C.2       10 UNK         0.4970 
     63 O          33.9390    0.0715  -10.3871 O.2       10 UNK        -0.4914 
     64 N          32.3605    0.8298   -8.9469 N.am      11 UNK        -0.4285 
     65 CA         33.2509    1.4793   -7.9666 C.3       11 UNK         0.1007 
     66 C          33.0673    3.0254   -7.9228 C.2       11 UNK         0.5703 
     67 N          32.4879    3.6504   -8.9410 N.am      11 UNK        -0.7361 
     68 O          33.4826    3.6814   -6.9711 O.2       11 UNK        -0.4986 
     69 C69        33.1449    0.8098   -6.5676 C.3       12 UNK        -0.0947 
     70 S70        34.0668   -0.7636   -6.5169 S.3       12 UNK        -0.2240 
     71 C71        32.7301   -1.9748   -6.2583 C.3       12 UNK         0.0194 
     72 H72        24.9600   -8.3610    0.7281 H         1 UNK         0.0906 
     73 H73        23.3690   -7.7860    0.2230 H         1 UNK         0.0906 
     74 H74        24.4802   -8.4672   -0.9665 H         1 UNK         0.0906 
     75 H75        25.4502   -6.8905   -2.2210 H         1 UNK         0.3140 
     76 H76        26.7456   -4.5868   -1.1242 H         1 UNK         0.1085 
     77 H77        26.1333   -5.1494   -4.0760 H         1 UNK         0.0836 
     78 H78        27.4414   -5.9028   -3.2178 H         1 UNK         0.0836 
     79 H79        29.7398   -5.1155   -3.6776 H         1 UNK         0.0731 
     80 H80        29.4865   -4.5108   -2.0557 H         1 UNK         0.0731 
     81 H81        30.8526   -3.6808   -5.4024 H         1 UNK         0.1312 
     82 H82        33.3557   -0.5157   -3.9286 H         1 UNK         0.1406 
     83 H83        30.5753   -2.4426   -1.3125 H         1 UNK         0.1631 
     84 H84        33.3917    0.0376   -1.6192 H         1 UNK         0.0717 
     85 H85        32.7081   -1.1132   -0.4999 H         1 UNK         0.0717 
     86 H86        30.9901    2.8713   -1.8476 H         1 UNK         0.0934 
     87 H87        32.2569    1.9826   -2.6458 H         1 UNK         0.0934 
     88 H88        30.6589    0.6884   -3.9652 H         1 UNK         0.0739 
     89 H89        28.6714    1.6042   -2.0701 H         1 UNK         0.3093 
     90 H90        26.8428   -0.2252   -2.0452 H         1 UNK         0.0818 
     91 H91        26.5714    2.2061   -1.8297 H         1 UNK         0.0819 
     92 H92        25.8892    2.3372   -3.4422 H         1 UNK         0.0819 
     93 H93        24.9933    1.5224   -2.1622 H         1 UNK         0.0819 
     94 H94        25.5471   -1.4171   -3.3196 H         1 UNK         0.3041 
     95 H95        23.4042   -0.8650   -6.0014 H         1 UNK         0.0784 
     96 H96        25.4780   -1.3942   -7.3556 H         1 UNK         0.0793 
     97 H97        25.8694   -2.6757   -6.2202 H         1 UNK         0.0793 
     98 H98        24.4028   -2.7721   -7.1954 H         1 UNK         0.0793 
     99 H99        24.2258   -3.2365   -4.5766 H         1 UNK         0.3024 
    100 H100       22.4309   -2.7324   -1.6363 H         1 UNK         0.1171 
    101 H101       21.4929   -4.5653   -3.9143 H         1 UNK         0.0786 
    102 H102       21.1232   -4.7691   -2.2009 H         1 UNK         0.0786 
    103 H103       20.4912   -3.3870   -3.0783 H         1 UNK         0.0786 
    104 H104       23.5965   -5.1029   -2.6585 H         1 UNK         0.2977 
    105 H105       29.1938    1.4863   -5.7652 H         1 UNK         0.3127 
    106 H106       29.8842    4.2438   -6.6334 H         1 UNK         0.0770 
    107 H107       27.4466    4.6500   -7.0948 H         1 UNK         0.0814 
    108 H108       27.6831    4.3297   -5.3896 H         1 UNK         0.0814 
    109 H109       27.0408    3.0685   -6.4355 H         1 UNK         0.0814 
    110 H110       28.7774    4.5364   -8.8818 H         1 UNK         0.2983 
    111 H111       30.1171    2.9364  -10.7298 H         1 UNK         0.0947 
    112 H112       28.7895    4.2150  -12.4230 H         1 UNK         0.0806 
    113 H113       29.4236    5.2713  -11.1738 H         1 UNK         0.0806 
    114 H114       27.7225    4.8036  -11.1557 H         1 UNK         0.0806 
    115 H115       26.8806    2.4824   -9.4388 H         1 UNK         0.3000 
    116 H116       25.8569    0.6043  -11.3058 H         1 UNK         0.0850 
    117 H117       25.3094    0.9467   -8.3053 H         1 UNK         0.0810 
    118 H118       24.3276   -0.0110   -9.4054 H         1 UNK         0.0810 
    119 H119       24.4329    1.7276   -9.6214 H         1 UNK         0.0810 
    120 H120       28.2670    0.2199   -8.7566 H         1 UNK         0.3040 
    121 H121       28.3801   -2.7359   -9.1997 H         1 UNK         0.0766 
    122 H122       28.0294   -1.9246   -6.8166 H         1 UNK         0.0812 
    123 H123       29.5519   -1.0525   -6.9219 H         1 UNK         0.0812 
    124 H124       29.5242   -2.8083   -7.0443 H         1 UNK         0.0812 
    125 H125       29.6125   -0.0629  -10.5661 H         1 UNK         0.3205 
    126 H126       31.3935    0.6044  -11.6414 H         1 UNK         0.0754 
    127 H127       32.9565   -0.9970  -12.6346 H         1 UNK         0.0769 
    128 H128       31.3387   -1.6745  -12.6855 H         1 UNK         0.0769 
    129 H129       32.4995   -2.2440  -11.4862 H         1 UNK         0.0769 
    130 H130       31.3669    0.9365   -8.7606 H         1 UNK         0.2981 
    131 H131       34.2862    1.3724   -8.2940 H         1 UNK         0.0541 
    132 H132       32.3972    4.6532   -8.9124 H         1 UNK         0.3459 
    133 H133       32.1939    3.1381   -9.7546 H         1 UNK         0.3459 
    134 H134       32.1008    0.6562   -6.2890 H         1 UNK         0.0612 
    135 H135       33.5761    1.4366   -5.7857 H         1 UNK         0.0612 
    136 H136       33.1048   -2.9543   -6.5578 H         1 UNK         0.0624 
    137 H137       31.9172   -1.7333   -6.9406 H         1 UNK         0.0624 
@<TRIPOS>BOND
     1    1    2 1    
     2    1   72 1    
     3    1   73 1    
     4    1   74 1    
     5    2    3 2    
     6    2    4 am   BACKBONE|DICT|INTERRES
     7    4    5 1    
     8    4   75 1    
     9    5    6 1    
    10    5   35 1    
    11    5   76 1    
    12    6    7 1    
    13    6   77 1    
    14    6   78 1    
    15    7    8 1    
    16    8    9 1    
    17    8   79 1    
    18    8   80 1    
    19    9   10 ar   
    20    9   14 ar   
    21   10   11 ar   
    22   10   81 1    
    23   11   12 ar   
    24   11   71 1    
    25   12   13 ar   
    26   12   82 1    
    27   13   14 ar   
    28   13   15 1    
    29   14   83 1    
    30   15   16 1    
    31   15   84 1    
    32   15   85 1    
    33   16   17 1    
    34   17   18 1    
    35   17   86 1    
    36   17   87 1    
    37   18   19 1    
    38   18   37 1    
    39   18   88 1    
    40   19   20 am   BACKBONE|DICT|INTERRES
    41   19   89 1    
    42   20   21 2    
    43   20   22 1    
    44   22   23 1    
    45   22   24 1    
    46   22   90 1    
    47   23   91 1    
    48   23   92 1    
    49   23   93 1    
    50   24   25 am   BACKBONE|DICT|INTERRES
    51   24   94 1    
    52   25   26 2    
    53   25   27 1    
    54   27   28 1    
    55   27   29 1    
    56   27   95 1    
    57   28   96 1    
    58   28   97 1    
    59   28   98 1    
    60   29   30 am   BACKBONE|DICT|INTERRES
    61   29   99 1    
    62   30   31 2    
    63   30   32 1    
    64   32   33 1    
    65   32   34 1    
    66   32  100 1    
    67   33  101 1    
    68   33  102 1    
    69   33  103 1    
    70   34   35 am   BACKBONE|DICT|INTERRES
    71   34  104 1    
    72   35   36 2    
    73   37   38 2    
    74   37   39 am   BACKBONE|DICT|INTERRES
    75   39   40 1    
    76   39  105 1    
    77   40   41 1    
    78   40   42 1    
    79   40  106 1    
    80   41  107 1    
    81   41  108 1    
    82   41  109 1    
    83   42   43 2    
    84   42   44 am   BACKBONE|DICT|INTERRES
    85   44   45 1    
    86   44  110 1    
    87   45   46 1    
    88   45   47 1    
    89   45  111 1    
    90   46  112 1    
    91   46  113 1    
    92   46  114 1    
    93   47   48 2    
    94   47   49 am   BACKBONE|DICT|INTERRES
    95   49   50 1    
    96   49  115 1    
    97   50   51 1    
    98   50   52 1    
    99   50  116 1    
   100   51  117 1    
   101   51  118 1    
   102   51  119 1    
   103   52   53 2    
   104   52   54 am   BACKBONE|DICT|INTERRES
   105   54   55 1    
   106   54  120 1    
   107   55   56 1    
   108   55   57 1    
   109   55  121 1    
   110   56  122 1    
   111   56  123 1    
   112   56  124 1    
   113   57   58 2    
   114   57   59 am   BACKBONE|DICT|INTERRES
   115   59   60 1    
   116   59  125 1    
   117   60   61 1    
   118   60   62 1    
   119   60  126 1    
   120   61  127 1    
   121   61  128 1    
   122   61  129 1    
   123   62   63 2    
   124   62   64 am   BACKBONE|DICT|INTERRES
   125   64   65 1    
   126   64  130 1    
   127   65   66 1    
   128   65   69 1    
   129   65  131 1    
   130   66   67 am   BACKBONE|DICT|INTERRES
   131   66   68 2    
   132   67  132 1    
   133   67  133 1    
   134   69   70 1    
   135   69  134 1    
   136   69  135 1    
   137   70   71 1    
   138   71  136 1    
   139   71  137 1    
@<TRIPOS>SUBSTRUCTURE
     1 UNK         1 GROUP             0       ****    0 ROOT    
