@<TRIPOS>MOLECULE
3R137
137   139    1
SMALL
USER_CHARGES


@<TRIPOS>ATOM
      1 CA         33.1353   -6.6370   -1.8898 C.3       0 UNK        -0.2020 
      2 C          31.8743   -6.4586   -1.0595 C.2       0 UNK         0.4855 
      3 O          31.3453   -7.4346   -0.5267 O.2       0 UNK        -0.5197 
      4 N          31.3934   -5.2147   -0.9394 N.am      1 UNK        -0.4892 
      5 CA         30.1628   -4.8610   -0.2220 C.3       1 UNK         0.0835 
      6 C6         30.1208   -3.3511    0.1329 C.3       12 UNK        -0.0855 
      7 S7         30.1559   -2.2762   -1.3390 S.3       12 UNK        -0.2931 
      8 C8         30.7331   -0.6860   -0.6788 C.3       12 UNK         0.0378 
      9 C9         30.6477    0.3657   -1.7737 C.ar      12 UNK        -0.0802 
     10 C10        31.6732    0.4812   -2.7167 C.ar      12 UNK        -0.0944 
     11 C11        31.5539    1.3682   -3.7908 C.ar      12 UNK        -0.0787 
     12 C12        30.4026    2.1550   -3.9071 C.ar      12 UNK        -0.0862 
     13 C13        29.3793    2.0678   -2.9558 C.ar      12 UNK        -0.0733 
     14 C14        29.5142    1.1772   -1.8852 C.ar      12 UNK        -0.0832 
     15 C15        28.1290    2.9304   -3.0894 C.3       12 UNK         0.0240 
     16 S16        26.6187    1.9208   -3.2515 S.3       12 UNK        -0.2522 
     17 C17        25.5689    2.9915   -4.2846 C.3       12 UNK        -0.0967 
     18 CA         25.7503    2.6818   -5.7906 C.3       5 UNK         0.0660 
     19 N          25.3989    1.2931   -6.1305 N.am      5 UNK        -0.4015 
     20 C          25.6547    0.6948   -7.3025 C.2       4 UNK         0.4946 
     21 O          26.1564    1.2750   -8.2679 O.2       4 UNK        -0.5353 
     22 CA         25.3561   -0.8071   -7.3838 C.3       4 UNK         0.0277 
     23 CB         25.2422   -1.3045   -8.8359 C.3       4 UNK        -0.1981 
     24 N          26.4733   -1.4797   -6.7360 N.am      4 UNK        -0.4209 
     25 C          26.4323   -2.0796   -5.5434 C.2       3 UNK         0.4942 
     26 O          25.3993   -2.3185   -4.9130 O.2       3 UNK        -0.5208 
     27 CA         27.8051   -2.3325   -4.9092 C.3       3 UNK         0.0250 
     28 CB         28.2377   -1.0629   -4.1686 C.3       3 UNK        -0.1990 
     29 N          27.8447   -3.4619   -3.9831 N.am      3 UNK        -0.4232 
     30 C          27.7020   -4.7472   -4.3313 C.2       2 UNK         0.4993 
     31 O          27.4779   -5.1227   -5.4835 O.2       2 UNK        -0.5286 
     32 CA         27.8745   -5.7820   -3.2060 C.3       2 UNK         0.0209 
     33 CB         28.1583   -7.2005   -3.7367 C.3       2 UNK        -0.1931 
     34 N          28.9632   -5.3820   -2.3125 N.am      2 UNK        -0.4546 
     35 C          28.8900   -5.3156   -0.9752 C.2       1 UNK         0.5154 
     36 O          27.8772   -5.5967   -0.3321 O.2       1 UNK        -0.5181 
     37 C          25.0426    3.7467   -6.6547 C.2       5 UNK         0.5014 
     38 O          25.5500    4.8645   -6.7476 O.2       5 UNK        -0.5248 
     39 N          23.9218    3.3893   -7.2998 N.am      6 UNK        -0.4434 
     40 CA         23.2374    4.2211   -8.2951 C.3       6 UNK         0.0363 
     41 CB         21.8823    3.5865   -8.6468 C.3       6 UNK        -0.1936 
     42 C          24.0757    4.4434   -9.5693 C.2       6 UNK         0.5081 
     43 O          23.9884    5.5152  -10.1688 O.2       6 UNK        -0.5248 
     44 N          24.8785    3.4389   -9.9465 N.am      7 UNK        -0.4718 
     45 CA         25.8385    3.5036  -11.0517 C.3       7 UNK         0.0273 
     46 CB         25.8093    2.1603  -11.8006 C.3       7 UNK        -0.1935 
     47 C          27.2679    3.8002  -10.5623 C.2       7 UNK         0.5018 
     48 O          28.1049    4.1942  -11.3748 O.2       7 UNK        -0.5186 
     49 N          27.5201    3.5716   -9.2635 N.am      8 UNK        -0.4240 
     50 CA         28.8213    3.5248   -8.5861 C.3       8 UNK         0.0235 
     51 CB         29.5211    4.9002   -8.6014 C.3       8 UNK        -0.2000 
     52 C          29.6881    2.3801   -9.1432 C.2       8 UNK         0.4941 
     53 O          30.8665    2.5830   -9.4431 O.2       8 UNK        -0.5273 
     54 N          29.0609    1.2083   -9.3071 N.am      9 UNK        -0.4262 
     55 CA         29.6396    0.0200   -9.9290 C.3       9 UNK         0.0264 
     56 CB         28.8243   -0.3075  -11.1931 C.3       9 UNK        -0.1955 
     57 C          29.6384   -1.1638   -8.9529 C.2       9 UNK         0.5031 
     58 O          29.0066   -1.1016   -7.8933 O.2       9 UNK        -0.5390 
     59 N          30.3458   -2.2302   -9.3506 N.am      10 UNK        -0.4204 
     60 CA         30.5560   -3.5131   -8.6657 C.3       10 UNK         0.0237 
     61 CB         29.2302   -4.2463   -8.3779 C.3       10 UNK        -0.1985 
     62 C          31.4505   -3.4137   -7.4184 C.2       10 UNK         0.4970 
     63 O          32.4627   -4.1127   -7.3599 O.2       10 UNK        -0.4914 
     64 N          31.0859   -2.5332   -6.4794 N.am      11 UNK        -0.4285 
     65 CA         31.8118   -2.2132   -5.2401 C.3       11 UNK         0.1007 
     66 C          32.1364   -3.4668   -4.3695 C.2       11 UNK         0.5703 
     67 N          33.3623   -3.6257   -3.8851 N.am      11 UNK        -0.7361 
     68 O          31.2575   -4.2788   -4.0827 O.2       11 UNK        -0.4986 
     69 C69        33.0074   -1.2518   -5.4997 C.3       12 UNK        -0.0947 
     70 S70        32.4637    0.3392   -6.2172 S.3       12 UNK        -0.2240 
     71 C71        32.6723    1.4893   -4.8183 C.3       12 UNK         0.0194 
     72 H72        32.8816   -6.7172   -2.9468 H         1 UNK         0.0906 
     73 H73        33.8189   -5.7999   -1.7528 H         1 UNK         0.0906 
     74 H74        33.6604   -7.5457   -1.5962 H         1 UNK         0.0906 
     75 H75        31.8409   -4.4487   -1.4241 H         1 UNK         0.3140 
     76 H76        30.1678   -5.4116    0.7216 H         1 UNK         0.1085 
     77 H77        30.9700   -3.1022    0.7715 H         1 UNK         0.0836 
     78 H78        29.2286   -3.1180    0.7174 H         1 UNK         0.0836 
     79 H79        31.7595   -0.7835   -0.3218 H         1 UNK         0.0731 
     80 H80        30.1233   -0.3991    0.1793 H         1 UNK         0.0731 
     81 H81        32.5507   -0.1437   -2.6279 H         1 UNK         0.1312 
     82 H82        30.3070    2.8372   -4.7407 H         1 UNK         0.1406 
     83 H83        28.7144    1.0869   -1.1626 H         1 UNK         0.1631 
     84 H84        28.2198    3.5900   -3.9538 H         1 UNK         0.0717 
     85 H85        28.0366    3.5768   -2.2158 H         1 UNK         0.0717 
     86 H86        24.5286    2.8491   -3.9860 H         1 UNK         0.0934 
     87 H87        25.8058    4.0344   -4.0619 H         1 UNK         0.0934 
     88 H88        26.8136    2.7866   -6.0143 H         1 UNK         0.0739 
     89 H89        25.0255    0.7366   -5.3743 H         1 UNK         0.3093 
     90 H90        24.4135   -1.0070   -6.8700 H         1 UNK         0.0818 
     91 H91        26.1731   -1.1661   -9.3849 H         1 UNK         0.0819 
     92 H92        24.9932   -2.3651   -8.8692 H         1 UNK         0.0819 
     93 H93        24.4600   -0.7677   -9.3742 H         1 UNK         0.0819 
     94 H94        27.3888   -1.2988   -7.1516 H         1 UNK         0.3041 
     95 H95        28.5213   -2.5405   -5.7014 H         1 UNK         0.0784 
     96 H96        28.2571   -0.1984   -4.8341 H         1 UNK         0.0793 
     97 H97        27.5603   -0.8341   -3.3457 H         1 UNK         0.0793 
     98 H98        29.2321   -1.1566   -3.7485 H         1 UNK         0.0793 
     99 H99        28.0336   -3.2451   -3.0150 H         1 UNK         0.3024 
    100 H100       26.9261   -5.8021   -2.6643 H         1 UNK         0.1171 
    101 H101       28.2654   -7.9143   -2.9198 H         1 UNK         0.0786 
    102 H102       27.3442   -7.5542   -4.3705 H         1 UNK         0.0786 
    103 H103       29.0737   -7.2294   -4.3292 H         1 UNK         0.0786 
    104 H104       29.8222   -5.0836   -2.7668 H         1 UNK         0.2977 
    105 H105       23.5569    2.4598   -7.1517 H         1 UNK         0.3127 
    106 H106       23.0518    5.1997   -7.8469 H         1 UNK         0.0770 
    107 H107       22.0003    2.5951   -9.0861 H         1 UNK         0.0814 
    108 H108       21.3418    4.1998   -9.3692 H         1 UNK         0.0814 
    109 H109       21.2468    3.4920   -7.7661 H         1 UNK         0.0814 
    110 H110       24.9033    2.5955   -9.3854 H         1 UNK         0.2983 
    111 H111       25.5588    4.2942  -11.7516 H         1 UNK         0.0947 
    112 H112       26.5138    2.1598  -12.6336 H         1 UNK         0.0806 
    113 H113       24.8206    1.9586  -12.2130 H         1 UNK         0.0806 
    114 H114       26.0757    1.3287  -11.1470 H         1 UNK         0.0806 
    115 H115       26.7568    3.1693   -8.7343 H         1 UNK         0.3000 
    116 H116       28.6198    3.2722   -7.5446 H         1 UNK         0.0850 
    117 H117       30.4259    4.8815   -7.9928 H         1 UNK         0.0810 
    118 H118       28.8730    5.6775   -8.1965 H         1 UNK         0.0810 
    119 H119       29.8152    5.1977   -9.6082 H         1 UNK         0.0810 
    120 H120       28.1087    1.1112   -8.9680 H         1 UNK         0.3040 
    121 H121       30.6756    0.2081  -10.2183 H         1 UNK         0.0766 
    122 H122       28.8185    0.5348  -11.8855 H         1 UNK         0.0812 
    123 H123       27.7881   -0.5476  -10.9565 H         1 UNK         0.0812 
    124 H124       29.2417   -1.1599  -11.7299 H         1 UNK         0.0812 
    125 H125       30.8399   -2.1471  -10.2287 H         1 UNK         0.3205 
    126 H126       31.1035   -4.1306   -9.3800 H         1 UNK         0.0754 
    127 H127       28.5739   -3.6824   -7.7174 H         1 UNK         0.0769 
    128 H128       29.4133   -5.2092   -7.8990 H         1 UNK         0.0769 
    129 H129       28.6811   -4.4418   -9.2988 H         1 UNK         0.0769 
    130 H130       30.2625   -1.9728   -6.6711 H         1 UNK         0.2981 
    131 H131       31.1083   -1.6563   -4.6298 H         1 UNK         0.0541 
    132 H132       33.5760   -4.4433   -3.3419 H         1 UNK         0.3459 
    133 H133       34.0939   -2.9711   -4.1106 H         1 UNK         0.3459 
    134 H134       33.5547   -1.0464   -4.5796 H         1 UNK         0.0612 
    135 H135       33.7230   -1.7108   -6.1836 H         1 UNK         0.0612 
    136 H136       32.6967    2.5065   -5.2120 H         1 UNK         0.0624 
    137 H137       33.6433    1.3283   -4.3476 H         1 UNK         0.0624 
@<TRIPOS>BOND
     1    1    2 1    
     2    1   72 1    
     3    1   73 1    
     4    1   74 1    
     5    2    3 2    
     6    2    4 am   BACKBONE|DICT|INTERRES
     7    4    5 1    
     8    4   75 1    
     9    5    6 1    
    10    5   35 1    
    11    5   76 1    
    12    6    7 1    
    13    6   77 1    
    14    6   78 1    
    15    7    8 1    
    16    8    9 1    
    17    8   79 1    
    18    8   80 1    
    19    9   10 ar   
    20    9   14 ar   
    21   10   11 ar   
    22   10   81 1    
    23   11   12 ar   
    24   11   71 1    
    25   12   13 ar   
    26   12   82 1    
    27   13   14 ar   
    28   13   15 1    
    29   14   83 1    
    30   15   16 1    
    31   15   84 1    
    32   15   85 1    
    33   16   17 1    
    34   17   18 1    
    35   17   86 1    
    36   17   87 1    
    37   18   19 1    
    38   18   37 1    
    39   18   88 1    
    40   19   20 am   BACKBONE|DICT|INTERRES
    41   19   89 1    
    42   20   21 2    
    43   20   22 1    
    44   22   23 1    
    45   22   24 1    
    46   22   90 1    
    47   23   91 1    
    48   23   92 1    
    49   23   93 1    
    50   24   25 am   BACKBONE|DICT|INTERRES
    51   24   94 1    
    52   25   26 2    
    53   25   27 1    
    54   27   28 1    
    55   27   29 1    
    56   27   95 1    
    57   28   96 1    
    58   28   97 1    
    59   28   98 1    
    60   29   30 am   BACKBONE|DICT|INTERRES
    61   29   99 1    
    62   30   31 2    
    63   30   32 1    
    64   32   33 1    
    65   32   34 1    
    66   32  100 1    
    67   33  101 1    
    68   33  102 1    
    69   33  103 1    
    70   34   35 am   BACKBONE|DICT|INTERRES
    71   34  104 1    
    72   35   36 2    
    73   37   38 2    
    74   37   39 am   BACKBONE|DICT|INTERRES
    75   39   40 1    
    76   39  105 1    
    77   40   41 1    
    78   40   42 1    
    79   40  106 1    
    80   41  107 1    
    81   41  108 1    
    82   41  109 1    
    83   42   43 2    
    84   42   44 am   BACKBONE|DICT|INTERRES
    85   44   45 1    
    86   44  110 1    
    87   45   46 1    
    88   45   47 1    
    89   45  111 1    
    90   46  112 1    
    91   46  113 1    
    92   46  114 1    
    93   47   48 2    
    94   47   49 am   BACKBONE|DICT|INTERRES
    95   49   50 1    
    96   49  115 1    
    97   50   51 1    
    98   50   52 1    
    99   50  116 1    
   100   51  117 1    
   101   51  118 1    
   102   51  119 1    
   103   52   53 2    
   104   52   54 am   BACKBONE|DICT|INTERRES
   105   54   55 1    
   106   54  120 1    
   107   55   56 1    
   108   55   57 1    
   109   55  121 1    
   110   56  122 1    
   111   56  123 1    
   112   56  124 1    
   113   57   58 2    
   114   57   59 am   BACKBONE|DICT|INTERRES
   115   59   60 1    
   116   59  125 1    
   117   60   61 1    
   118   60   62 1    
   119   60  126 1    
   120   61  127 1    
   121   61  128 1    
   122   61  129 1    
   123   62   63 2    
   124   62   64 am   BACKBONE|DICT|INTERRES
   125   64   65 1    
   126   64  130 1    
   127   65   66 1    
   128   65   69 1    
   129   65  131 1    
   130   66   67 am   BACKBONE|DICT|INTERRES
   131   66   68 2    
   132   67  132 1    
   133   67  133 1    
   134   69   70 1    
   135   69  134 1    
   136   69  135 1    
   137   70   71 1    
   138   71  136 1    
   139   71  137 1    
@<TRIPOS>SUBSTRUCTURE
     1 UNK         1 GROUP             0       ****    0 ROOT    
