@<TRIPOS>MOLECULE
3R137
137   139    1
SMALL
USER_CHARGES


@<TRIPOS>ATOM
      1 CA         24.4988   -7.6726   -1.2521 C.3       0 UNK        -0.2020 
      2 C          25.3460   -6.6227   -0.5491 C.2       0 UNK         0.4855 
      3 O          25.2001   -6.4264    0.6575 O.2       0 UNK        -0.5197 
      4 N          26.2312   -5.9462   -1.2939 N.am      1 UNK        -0.4892 
      5 CA         27.1140   -4.8853   -0.7864 C.3       1 UNK         0.0835 
      6 C6         28.2970   -4.6342   -1.7579 C.3       12 UNK        -0.0855 
      7 S7         29.8114   -4.0876   -0.8981 S.3       12 UNK        -0.2931 
      8 C8         31.0947   -4.4968   -2.1255 C.3       12 UNK         0.0378 
      9 C9         30.9737   -3.6265   -3.3674 C.ar      12 UNK        -0.0802 
     10 C10        31.5544   -2.3545   -3.3950 C.ar      12 UNK        -0.0944 
     11 C11        31.4183   -1.5378   -4.5217 C.ar      12 UNK        -0.0787 
     12 C12        30.6871   -1.9967   -5.6193 C.ar      12 UNK        -0.0862 
     13 C13        30.1094   -3.2691   -5.6064 C.ar      12 UNK        -0.0733 
     14 C14        30.2687   -4.0861   -4.4840 C.ar      12 UNK        -0.0832 
     15 C15        29.2919   -3.7475   -6.7969 C.3       12 UNK         0.0240 
     16 S16        27.5288   -4.0035   -6.3973 S.3       12 UNK        -0.2522 
     17 C17        27.0514   -2.5029   -5.4679 C.3       12 UNK        -0.0967 
     18 CA         26.4549   -1.3830   -6.3582 C.3       5 UNK         0.0660 
     19 N          25.3519   -0.6866   -5.6874 N.am      5 UNK        -0.4015 
     20 C          24.5054    0.1623   -6.2928 C.2       4 UNK         0.4946 
     21 O          24.5504    0.4158   -7.4970 O.2       4 UNK        -0.5353 
     22 CA         23.4652    0.8905   -5.4189 C.3       4 UNK         0.0277 
     23 CB         22.0991    0.1939   -5.5239 C.3       4 UNK        -0.1981 
     24 N          23.8392    1.0055   -4.0060 N.am      4 UNK        -0.4209 
     25 C          24.9351    1.6222   -3.5386 C.2       3 UNK         0.4942 
     26 O          25.7376    2.2212   -4.2536 O.2       3 UNK        -0.5208 
     27 CA         25.2220    1.4895   -2.0311 C.3       3 UNK         0.0250 
     28 CB         24.6539    2.6974   -1.2693 C.3       3 UNK        -0.1990 
     29 N          24.7222    0.2475   -1.4226 N.am      3 UNK        -0.4232 
     30 C          25.0444   -0.9918   -1.8211 C.2       2 UNK         0.4993 
     31 O          25.7594   -1.2327   -2.7971 O.2       2 UNK        -0.5286 
     32 CA         24.3968   -2.1517   -1.0493 C.3       2 UNK         0.0209 
     33 CB         22.9965   -2.4483   -1.6124 C.3       2 UNK        -0.1931 
     34 N          25.2079   -3.3660   -1.1427 N.am      2 UNK        -0.4546 
     35 C          26.3492   -3.5776   -0.4715 C.2       1 UNK         0.5154 
     36 O          26.7886   -2.7998    0.3777 O.2       1 UNK        -0.5181 
     37 C          27.5417   -0.4143   -6.8795 C.2       5 UNK         0.5014 
     38 O          28.2502   -0.7661   -7.8220 O.2       5 UNK        -0.5248 
     39 N          27.6179    0.8138   -6.3378 N.am      6 UNK        -0.4434 
     40 CA         28.4957    1.8811   -6.8330 C.3       6 UNK         0.0363 
     41 CB         28.4298    3.0873   -5.8845 C.3       6 UNK        -0.1936 
     42 C          28.1964    2.3178   -8.2826 C.2       6 UNK         0.5081 
     43 O          29.0788    2.8746   -8.9345 O.2       6 UNK        -0.5248 
     44 N          26.9762    2.0521   -8.7741 N.am      7 UNK        -0.4718 
     45 CA         26.6018    2.2426  -10.1769 C.3       7 UNK         0.0273 
     46 CB         25.0780    2.4193  -10.2741 C.3       7 UNK        -0.1935 
     47 C          27.0671    1.0830  -11.0784 C.2       7 UNK         0.5018 
     48 O          27.1883    1.2843  -12.2874 O.2       7 UNK        -0.5186 
     49 N          27.3053   -0.1016  -10.4957 N.am      8 UNK        -0.4240 
     50 CA         27.7800   -1.2944  -11.1988 C.3       8 UNK         0.0235 
     51 CB         27.2251   -2.5586  -10.5196 C.3       8 UNK        -0.2000 
     52 C          29.3137   -1.3325  -11.2617 C.2       8 UNK         0.4941 
     53 O          29.8606   -1.6541  -12.3176 O.2       8 UNK        -0.5273 
     54 N          29.9780   -0.9894  -10.1508 N.am      9 UNK        -0.4262 
     55 CA         31.4292   -0.8666  -10.0509 C.3       9 UNK         0.0264 
     56 CB         32.0202   -2.1215   -9.3846 C.3       9 UNK        -0.1955 
     57 C          31.7383    0.4027   -9.2544 C.2       9 UNK         0.5031 
     58 O          31.4695    0.4470   -8.0537 O.2       9 UNK        -0.5390 
     59 N          32.2754    1.4209   -9.9355 N.am      10 UNK        -0.4204 
     60 CA         32.6039    2.7261   -9.3628 C.3       10 UNK         0.0237 
     61 CB         32.7042    3.7603  -10.4997 C.3       10 UNK        -0.1985 
     62 C          33.8854    2.6631   -8.5134 C.2       10 UNK         0.4970 
     63 O          34.9613    3.0173   -9.0003 O.2       10 UNK        -0.4914 
     64 N          33.7452    2.1913   -7.2693 N.am      11 UNK        -0.4285 
     65 CA         34.8028    2.1423   -6.2478 C.3       11 UNK         0.1007 
     66 C          35.4125    3.5383   -5.9357 C.2       11 UNK         0.5703 
     67 N          36.7153    3.6088   -5.6973 N.am      11 UNK        -0.7361 
     68 O          34.7087    4.5447   -5.8639 O.2       11 UNK        -0.4986 
     69 C69        34.3013    1.4817   -4.9378 C.3       12 UNK        -0.0947 
     70 S70        33.7614   -0.2440   -5.1686 S.3       12 UNK        -0.2240 
     71 C71        32.0531   -0.1576   -4.5520 C.3       12 UNK         0.0194 
     72 H72        24.6634   -8.6507   -0.8009 H         1 UNK         0.0906 
     73 H73        23.4414   -7.4270   -1.1561 H         1 UNK         0.0906 
     74 H74        24.7348   -7.7455   -2.3136 H         1 UNK         0.0906 
     75 H75        26.3122   -6.1568   -2.2791 H         1 UNK         0.3140 
     76 H76        27.5202   -5.2443    0.1625 H         1 UNK         0.1085 
     77 H77        28.0359   -3.9124   -2.5355 H         1 UNK         0.0836 
     78 H78        28.5464   -5.5584   -2.2818 H         1 UNK         0.0836 
     79 H79        32.0764   -4.3541   -1.6713 H         1 UNK         0.0731 
     80 H80        31.0323   -5.5545   -2.3866 H         1 UNK         0.0731 
     81 H81        32.1068   -1.9975   -2.5364 H         1 UNK         0.1312 
     82 H82        30.5633   -1.3566   -6.4818 H         1 UNK         0.1406 
     83 H83        29.8142   -5.0674   -4.4711 H         1 UNK         0.1631 
     84 H84        29.7078   -4.6889   -7.1579 H         1 UNK         0.0717 
     85 H85        29.3713   -3.0501   -7.6304 H         1 UNK         0.0717 
     86 H86        26.2950   -2.8528   -4.7642 H         1 UNK         0.0934 
     87 H87        27.8617   -2.1368   -4.8357 H         1 UNK         0.0934 
     88 H88        26.0141   -1.8505   -7.2416 H         1 UNK         0.0739 
     89 H89        25.2922   -0.8188   -4.6814 H         1 UNK         0.3093 
     90 H90        23.3667    1.9035   -5.8148 H         1 UNK         0.0818 
     91 H91        21.3266    0.7504   -4.9929 H         1 UNK         0.0819 
     92 H92        21.7803    0.1155   -6.5644 H         1 UNK         0.0819 
     93 H93        22.1282   -0.8171   -5.1152 H         1 UNK         0.0819 
     94 H94        23.2407    0.5400   -3.3399 H         1 UNK         0.3041 
     95 H95        26.3077    1.4913   -1.9129 H         1 UNK         0.0784 
     96 H96        25.0280    3.6334   -1.6873 H         1 UNK         0.0793 
     97 H97        23.5648    2.7312   -1.3183 H         1 UNK         0.0793 
     98 H98        24.9436    2.6773   -0.2185 H         1 UNK         0.0793 
     99 H99        24.1100    0.3564   -0.6263 H         1 UNK         0.3024 
    100 H100       24.3082   -1.8707    0.0029 H         1 UNK         0.1171 
    101 H101       22.3425   -1.5801   -1.5207 H         1 UNK         0.0786 
    102 H102       22.5187   -3.2673   -1.0741 H         1 UNK         0.0786 
    103 H103       23.0338   -2.7184   -2.6688 H         1 UNK         0.0786 
    104 H104       24.9309   -4.0478   -1.8329 H         1 UNK         0.2977 
    105 H105       26.9835    1.0669   -5.5880 H         1 UNK         0.3127 
    106 H106       29.5152    1.4957   -6.8120 H         1 UNK         0.0770 
    107 H107       27.4386    3.5422   -5.8806 H         1 UNK         0.0814 
    108 H108       29.1401    3.8580   -6.1866 H         1 UNK         0.0814 
    109 H109       28.6747    2.8039   -4.8607 H         1 UNK         0.0814 
    110 H110       26.2914    1.5987   -8.1796 H         1 UNK         0.2983 
    111 H111       27.0719    3.1560  -10.5486 H         1 UNK         0.0947 
    112 H112       24.7751    2.6263  -11.3015 H         1 UNK         0.0806 
    113 H113       24.7339    3.2522   -9.6609 H         1 UNK         0.0806 
    114 H114       24.5456    1.5232   -9.9534 H         1 UNK         0.0806 
    115 H115       27.2645   -0.1647   -9.4852 H         1 UNK         0.3000 
    116 H116       27.4039   -1.2784  -12.2243 H         1 UNK         0.0850 
    117 H117       27.5270   -3.4543  -11.0639 H         1 UNK         0.0810 
    118 H118       26.1355   -2.5478  -10.4928 H         1 UNK         0.0810 
    119 H119       27.5829   -2.6682   -9.4959 H         1 UNK         0.0810 
    120 H120       29.4546   -0.7498   -9.3098 H         1 UNK         0.3040 
    121 H121       31.8708   -0.7686  -11.0450 H         1 UNK         0.0766 
    122 H122       33.1031   -2.0364   -9.2872 H         1 UNK         0.0812 
    123 H123       31.8142   -3.0155   -9.9730 H         1 UNK         0.0812 
    124 H124       31.6168   -2.2801   -8.3854 H         1 UNK         0.0812 
    125 H125       32.4835    1.2961  -10.9157 H         1 UNK         0.3205 
    126 H126       31.7870    3.0376   -8.7079 H         1 UNK         0.0754 
    127 H127       32.9559    4.7466  -10.1072 H         1 UNK         0.0769 
    128 H128       31.7556    3.8569  -11.0286 H         1 UNK         0.0769 
    129 H129       33.4704    3.4933  -11.2288 H         1 UNK         0.0769 
    130 H130       32.8420    1.8218   -7.0010 H         1 UNK         0.2981 
    131 H131       35.5991    1.5179   -6.6577 H         1 UNK         0.0541 
    132 H132       37.2989    2.7876   -5.7400 H         1 UNK         0.3459 
    133 H133       37.1252    4.5031   -5.4772 H         1 UNK         0.3459 
    134 H134       33.4896    2.0691   -4.5043 H         1 UNK         0.0612 
    135 H135       35.0966    1.4680   -4.1900 H         1 UNK         0.0612 
    136 H136       32.0479    0.2751   -3.5504 H         1 UNK         0.0624 
    137 H137       31.4719    0.5137   -5.1865 H         1 UNK         0.0624 
@<TRIPOS>BOND
     1    1    2 1    
     2    1   72 1    
     3    1   73 1    
     4    1   74 1    
     5    2    3 2    
     6    2    4 am   BACKBONE|DICT|INTERRES
     7    4    5 1    
     8    4   75 1    
     9    5    6 1    
    10    5   35 1    
    11    5   76 1    
    12    6    7 1    
    13    6   77 1    
    14    6   78 1    
    15    7    8 1    
    16    8    9 1    
    17    8   79 1    
    18    8   80 1    
    19    9   10 ar   
    20    9   14 ar   
    21   10   11 ar   
    22   10   81 1    
    23   11   12 ar   
    24   11   71 1    
    25   12   13 ar   
    26   12   82 1    
    27   13   14 ar   
    28   13   15 1    
    29   14   83 1    
    30   15   16 1    
    31   15   84 1    
    32   15   85 1    
    33   16   17 1    
    34   17   18 1    
    35   17   86 1    
    36   17   87 1    
    37   18   19 1    
    38   18   37 1    
    39   18   88 1    
    40   19   20 am   BACKBONE|DICT|INTERRES
    41   19   89 1    
    42   20   21 2    
    43   20   22 1    
    44   22   23 1    
    45   22   24 1    
    46   22   90 1    
    47   23   91 1    
    48   23   92 1    
    49   23   93 1    
    50   24   25 am   BACKBONE|DICT|INTERRES
    51   24   94 1    
    52   25   26 2    
    53   25   27 1    
    54   27   28 1    
    55   27   29 1    
    56   27   95 1    
    57   28   96 1    
    58   28   97 1    
    59   28   98 1    
    60   29   30 am   BACKBONE|DICT|INTERRES
    61   29   99 1    
    62   30   31 2    
    63   30   32 1    
    64   32   33 1    
    65   32   34 1    
    66   32  100 1    
    67   33  101 1    
    68   33  102 1    
    69   33  103 1    
    70   34   35 am   BACKBONE|DICT|INTERRES
    71   34  104 1    
    72   35   36 2    
    73   37   38 2    
    74   37   39 am   BACKBONE|DICT|INTERRES
    75   39   40 1    
    76   39  105 1    
    77   40   41 1    
    78   40   42 1    
    79   40  106 1    
    80   41  107 1    
    81   41  108 1    
    82   41  109 1    
    83   42   43 2    
    84   42   44 am   BACKBONE|DICT|INTERRES
    85   44   45 1    
    86   44  110 1    
    87   45   46 1    
    88   45   47 1    
    89   45  111 1    
    90   46  112 1    
    91   46  113 1    
    92   46  114 1    
    93   47   48 2    
    94   47   49 am   BACKBONE|DICT|INTERRES
    95   49   50 1    
    96   49  115 1    
    97   50   51 1    
    98   50   52 1    
    99   50  116 1    
   100   51  117 1    
   101   51  118 1    
   102   51  119 1    
   103   52   53 2    
   104   52   54 am   BACKBONE|DICT|INTERRES
   105   54   55 1    
   106   54  120 1    
   107   55   56 1    
   108   55   57 1    
   109   55  121 1    
   110   56  122 1    
   111   56  123 1    
   112   56  124 1    
   113   57   58 2    
   114   57   59 am   BACKBONE|DICT|INTERRES
   115   59   60 1    
   116   59  125 1    
   117   60   61 1    
   118   60   62 1    
   119   60  126 1    
   120   61  127 1    
   121   61  128 1    
   122   61  129 1    
   123   62   63 2    
   124   62   64 am   BACKBONE|DICT|INTERRES
   125   64   65 1    
   126   64  130 1    
   127   65   66 1    
   128   65   69 1    
   129   65  131 1    
   130   66   67 am   BACKBONE|DICT|INTERRES
   131   66   68 2    
   132   67  132 1    
   133   67  133 1    
   134   69   70 1    
   135   69  134 1    
   136   69  135 1    
   137   70   71 1    
   138   71  136 1    
   139   71  137 1    
@<TRIPOS>SUBSTRUCTURE
     1 UNK         1 GROUP             0       ****    0 ROOT    
