@<TRIPOS>MOLECULE
3R137
137   139    1
SMALL
USER_CHARGES


@<TRIPOS>ATOM
      1 CA         31.0671    0.6360   -1.6199 C.3       0 UNK        -0.2020 
      2 C          30.0842   -0.4629   -1.9963 C.2       0 UNK         0.4855 
      3 O          29.5768   -0.4666   -3.1170 O.2       0 UNK        -0.5197 
      4 N          29.8182   -1.3939   -1.0704 N.am      1 UNK        -0.4892 
      5 CA         28.8767   -2.5042   -1.2510 C.3       1 UNK         0.0835 
      6 C6         29.0228   -3.5943   -0.1543 C.3       12 UNK        -0.0855 
      7 S7         30.7251   -4.2050    0.0935 S.3       12 UNK        -0.2931 
      8 C8         30.7928   -5.6275   -1.0442 C.3       12 UNK         0.0378 
      9 C9         30.8927   -5.1740   -2.4925 C.ar      12 UNK        -0.0802 
     10 C10        32.0320   -4.4889   -2.9252 C.ar      12 UNK        -0.0944 
     11 C11        32.1227   -4.0188   -4.2368 C.ar      12 UNK        -0.0787 
     12 C12        31.0768   -4.2666   -5.1274 C.ar      12 UNK        -0.0862 
     13 C13        29.9333   -4.9528   -4.7107 C.ar      12 UNK        -0.0733 
     14 C14        29.8485   -5.4138   -3.3925 C.ar      12 UNK        -0.0832 
     15 C15        28.7862   -5.1769   -5.6858 C.3       12 UNK         0.0240 
     16 S16        27.3491   -4.1283   -5.2984 S.3       12 UNK        -0.2522 
     17 C17        28.0046   -2.4381   -5.5305 C.3       12 UNK        -0.0967 
     18 CA         27.3206   -1.6550   -6.6793 C.3       5 UNK         0.0660 
     19 N          25.8569   -1.6764   -6.5849 N.am      5 UNK        -0.4015 
     20 C          25.0113   -1.2538   -7.5348 C.2       4 UNK         0.4946 
     21 O          25.3706   -0.8111   -8.6247 O.2       4 UNK        -0.5353 
     22 CA         23.5096   -1.3040   -7.2024 C.3       4 UNK         0.0277 
     23 CB         22.9464   -2.7101   -7.4632 C.3       4 UNK        -0.1981 
     24 N          23.2178   -0.9050   -5.8232 N.am      4 UNK        -0.4209 
     25 C          23.4061    0.3303   -5.3356 C.2       3 UNK         0.4942 
     26 O          23.7829    1.2835   -6.0144 O.2       3 UNK        -0.5208 
     27 CA         23.1986    0.5229   -3.8224 C.3       3 UNK         0.0250 
     28 CB         21.7242    0.8267   -3.5131 C.3       3 UNK        -0.1990 
     29 N          23.6493   -0.6184   -3.0157 N.am      3 UNK        -0.4232 
     30 C          24.8937   -1.1170   -3.0310 C.2       2 UNK         0.4993 
     31 O          25.7970   -0.6630   -3.7366 O.2       2 UNK        -0.5286 
     32 CA         25.1367   -2.3703   -2.1733 C.3       2 UNK         0.0209 
     33 CB         24.4211   -3.5895   -2.7824 C.3       2 UNK        -0.1931 
     34 N          26.5620   -2.6833   -2.0425 N.am      2 UNK        -0.4546 
     35 C          27.4187   -1.9993   -1.2734 C.2       1 UNK         0.5154 
     36 O          27.0831   -1.0589   -0.5467 O.2       1 UNK        -0.5181 
     37 C          27.8458   -0.2069   -6.7219 C.2       5 UNK         0.5014 
     38 O          28.7234    0.1048   -7.5310 O.2       5 UNK        -0.5248 
     39 N          27.2692    0.6516   -5.8681 N.am      6 UNK        -0.4434 
     40 CA         27.5264    2.0890   -5.8194 C.3       6 UNK         0.0363 
     41 CB         26.8598    2.6910   -4.5729 C.3       6 UNK        -0.1936 
     42 C          27.0694    2.8111   -7.0977 C.2       6 UNK         0.5081 
     43 O          27.8336    3.6113   -7.6351 O.2       6 UNK        -0.5248 
     44 N          25.8614    2.4947   -7.5893 N.am      7 UNK        -0.4718 
     45 CA         25.3014    3.0293   -8.8373 C.3       7 UNK         0.0273 
     46 CB         23.8316    2.6035   -8.9764 C.3       7 UNK        -0.1935 
     47 C          26.1016    2.6204  -10.0853 C.2       7 UNK         0.5018 
     48 O          26.2835    3.4440  -10.9826 O.2       7 UNK        -0.5186 
     49 N          26.5973    1.3751  -10.1042 N.am      8 UNK        -0.4240 
     50 CA         27.5160    0.8573  -11.1224 C.3       8 UNK         0.0235 
     51 CB         27.5536   -0.6773  -11.0276 C.3       8 UNK        -0.2000 
     52 C          28.9434    1.4289  -11.0150 C.2       8 UNK         0.4941 
     53 O          29.7200    1.2559  -11.9553 O.2       8 UNK        -0.5273 
     54 N          29.2671    2.0713   -9.8810 N.am      9 UNK        -0.4262 
     55 CA         30.5747    2.6075   -9.4911 C.3       9 UNK         0.0264 
     56 CB         30.9734    3.7982  -10.3885 C.3       9 UNK        -0.1955 
     57 C          31.6530    1.5104   -9.4166 C.2       9 UNK         0.5031 
     58 O          32.7707    1.7102   -9.8968 O.2       9 UNK        -0.5390 
     59 N          31.2895    0.3619   -8.8259 N.am      10 UNK        -0.4204 
     60 CA         32.1418   -0.8259   -8.7233 C.3       10 UNK         0.0237 
     61 CB         31.2998   -2.0117   -8.2300 C.3       10 UNK        -0.1985 
     62 C          33.3743   -0.6209   -7.8252 C.2       10 UNK         0.4970 
     63 O          34.4515   -1.1172   -8.1572 O.2       10 UNK        -0.4914 
     64 N          33.1933    0.1100   -6.7206 N.am      11 UNK        -0.4285 
     65 CA         34.2384    0.4549   -5.7446 C.3       11 UNK         0.1007 
     66 C          33.9178    1.7422   -4.9293 C.2       11 UNK         0.5703 
     67 N          32.9615    2.5683   -5.3406 N.am      11 UNK        -0.7361 
     68 O          34.5588    2.0172   -3.9178 O.2       11 UNK        -0.4986 
     69 C69        34.6769   -0.7550   -4.8683 C.3       12 UNK        -0.0947 
     70 S70        33.2963   -1.5449   -3.9753 S.3       12 UNK        -0.2240 
     71 C71        33.3363   -3.2200   -4.6812 C.3       12 UNK         0.0194 
     72 H72        30.5594    1.5997   -1.5963 H         1 UNK         0.0906 
     73 H73        31.8678    0.6925   -2.3571 H         1 UNK         0.0906 
     74 H74        31.5187    0.4631   -0.6434 H         1 UNK         0.0906 
     75 H75        30.2593   -1.3436   -0.1636 H         1 UNK         0.3140 
     76 H76        29.0938   -2.9523   -2.2227 H         1 UNK         0.1085 
     77 H77        28.6839   -3.2061    0.8087 H         1 UNK         0.0836 
     78 H78        28.3739   -4.4445   -0.3739 H         1 UNK         0.0836 
     79 H79        31.6688   -6.2307   -0.8015 H         1 UNK         0.0731 
     80 H80        29.9254   -6.2704   -0.8865 H         1 UNK         0.0731 
     81 H81        32.8350   -4.2890   -2.2286 H         1 UNK         0.1312 
     82 H82        31.1442   -3.9100   -6.1438 H         1 UNK         0.1406 
     83 H83        28.9608   -5.9393   -3.0668 H         1 UNK         0.1631 
     84 H84        28.4804   -6.2234   -5.6486 H         1 UNK         0.0717 
     85 H85        29.1011   -4.9863   -6.7131 H         1 UNK         0.0717 
     86 H86        27.8870   -1.9144   -4.5813 H         1 UNK         0.0934 
     87 H87        29.0797   -2.4756   -5.7033 H         1 UNK         0.0934 
     88 H88        27.5936   -2.1312   -7.6234 H         1 UNK         0.0739 
     89 H89        25.4836   -1.9744   -5.6961 H         1 UNK         0.3093 
     90 H90        23.0003   -0.6043   -7.8685 H         1 UNK         0.0818 
     91 H91        23.1363   -3.0199   -8.4920 H         1 UNK         0.0819 
     92 H92        23.3984   -3.4576   -6.8098 H         1 UNK         0.0819 
     93 H93        21.8671   -2.7397   -7.3126 H         1 UNK         0.0819 
     94 H94        22.8930   -1.6245   -5.1943 H         1 UNK         0.3041 
     95 H95        23.7945    1.3871   -3.5216 H         1 UNK         0.0784 
     96 H96        21.3742    1.6842   -4.0899 H         1 UNK         0.0793 
     97 H97        21.0761   -0.0162   -3.7567 H         1 UNK         0.0793 
     98 H98        21.5808    1.0683   -2.4597 H         1 UNK         0.0793 
     99 H99        22.9582   -1.0479   -2.4170 H         1 UNK         0.3024 
    100 H100       24.7317   -2.1825   -1.1760 H         1 UNK         0.1171 
    101 H101       23.3411   -3.4421   -2.8147 H         1 UNK         0.0786 
    102 H102       24.7520   -3.7882   -3.8021 H         1 UNK         0.0786 
    103 H103       24.6003   -4.4891   -2.1930 H         1 UNK         0.0786 
    104 H104       26.9135   -3.4203   -2.6367 H         1 UNK         0.2977 
    105 H105       26.6108    0.2783   -5.1870 H         1 UNK         0.3127 
    106 H106       28.6059    2.2261   -5.7263 H         1 UNK         0.0770 
    107 H107       25.7757    2.5802   -4.6001 H         1 UNK         0.0814 
    108 H108       27.0779    3.7565   -4.4907 H         1 UNK         0.0814 
    109 H109       27.2215    2.2124   -3.6623 H         1 UNK         0.0814 
    110 H110       25.2597    1.8730   -7.0533 H         1 UNK         0.2983 
    111 H111       25.3346    4.1190   -8.7719 H         1 UNK         0.0947 
    112 H112       23.7283    1.5185   -9.0082 H         1 UNK         0.0806 
    113 H113       23.3935    3.0013   -9.8927 H         1 UNK         0.0806 
    114 H114       23.2318    2.9726   -8.1444 H         1 UNK         0.0806 
    115 H115       26.3260    0.7294   -9.3665 H         1 UNK         0.3000 
    116 H116       27.1278    1.1319  -12.1054 H         1 UNK         0.0850 
    117 H117       28.2045   -1.1033  -11.7923 H         1 UNK         0.0810 
    118 H118       26.5622   -1.1079  -11.1699 H         1 UNK         0.0810 
    119 H119       27.9267   -1.0102  -10.0581 H         1 UNK         0.0810 
    120 H120       28.5476    2.1569   -9.1733 H         1 UNK         0.3040 
    121 H121       30.4563    2.9870   -8.4752 H         1 UNK         0.0766 
    122 H122       31.1579    3.4878  -11.4174 H         1 UNK         0.0812 
    123 H123       31.8850    4.2733  -10.0243 H         1 UNK         0.0812 
    124 H124       30.1943    4.5605  -10.4021 H         1 UNK         0.0812 
    125 H125       30.3460    0.2860   -8.4460 H         1 UNK         0.3205 
    126 H126       32.5022   -1.0604   -9.7272 H         1 UNK         0.0754 
    127 H127       31.8988   -2.9222   -8.1882 H         1 UNK         0.0769 
    128 H128       30.4585   -2.2063   -8.8957 H         1 UNK         0.0769 
    129 H129       30.9008   -1.8274   -7.2322 H         1 UNK         0.0769 
    130 H130       32.2661    0.4407   -6.4999 H         1 UNK         0.2981 
    131 H131       35.1146    0.7465   -6.3263 H         1 UNK         0.0541 
    132 H132       32.7781    3.3986   -4.7995 H         1 UNK         0.3459 
    133 H133       32.4769    2.4230   -6.2090 H         1 UNK         0.3459 
    134 H134       35.4325   -0.4567   -4.1399 H         1 UNK         0.0612 
    135 H135       35.1696   -1.4978   -5.4967 H         1 UNK         0.0612 
    136 H136       34.2498   -3.7261   -4.3659 H         1 UNK         0.0624 
    137 H137       33.3726   -3.1530   -5.7698 H         1 UNK         0.0624 
@<TRIPOS>BOND
     1    1    2 1    
     2    1   72 1    
     3    1   73 1    
     4    1   74 1    
     5    2    3 2    
     6    2    4 am   BACKBONE|DICT|INTERRES
     7    4    5 1    
     8    4   75 1    
     9    5    6 1    
    10    5   35 1    
    11    5   76 1    
    12    6    7 1    
    13    6   77 1    
    14    6   78 1    
    15    7    8 1    
    16    8    9 1    
    17    8   79 1    
    18    8   80 1    
    19    9   10 ar   
    20    9   14 ar   
    21   10   11 ar   
    22   10   81 1    
    23   11   12 ar   
    24   11   71 1    
    25   12   13 ar   
    26   12   82 1    
    27   13   14 ar   
    28   13   15 1    
    29   14   83 1    
    30   15   16 1    
    31   15   84 1    
    32   15   85 1    
    33   16   17 1    
    34   17   18 1    
    35   17   86 1    
    36   17   87 1    
    37   18   19 1    
    38   18   37 1    
    39   18   88 1    
    40   19   20 am   BACKBONE|DICT|INTERRES
    41   19   89 1    
    42   20   21 2    
    43   20   22 1    
    44   22   23 1    
    45   22   24 1    
    46   22   90 1    
    47   23   91 1    
    48   23   92 1    
    49   23   93 1    
    50   24   25 am   BACKBONE|DICT|INTERRES
    51   24   94 1    
    52   25   26 2    
    53   25   27 1    
    54   27   28 1    
    55   27   29 1    
    56   27   95 1    
    57   28   96 1    
    58   28   97 1    
    59   28   98 1    
    60   29   30 am   BACKBONE|DICT|INTERRES
    61   29   99 1    
    62   30   31 2    
    63   30   32 1    
    64   32   33 1    
    65   32   34 1    
    66   32  100 1    
    67   33  101 1    
    68   33  102 1    
    69   33  103 1    
    70   34   35 am   BACKBONE|DICT|INTERRES
    71   34  104 1    
    72   35   36 2    
    73   37   38 2    
    74   37   39 am   BACKBONE|DICT|INTERRES
    75   39   40 1    
    76   39  105 1    
    77   40   41 1    
    78   40   42 1    
    79   40  106 1    
    80   41  107 1    
    81   41  108 1    
    82   41  109 1    
    83   42   43 2    
    84   42   44 am   BACKBONE|DICT|INTERRES
    85   44   45 1    
    86   44  110 1    
    87   45   46 1    
    88   45   47 1    
    89   45  111 1    
    90   46  112 1    
    91   46  113 1    
    92   46  114 1    
    93   47   48 2    
    94   47   49 am   BACKBONE|DICT|INTERRES
    95   49   50 1    
    96   49  115 1    
    97   50   51 1    
    98   50   52 1    
    99   50  116 1    
   100   51  117 1    
   101   51  118 1    
   102   51  119 1    
   103   52   53 2    
   104   52   54 am   BACKBONE|DICT|INTERRES
   105   54   55 1    
   106   54  120 1    
   107   55   56 1    
   108   55   57 1    
   109   55  121 1    
   110   56  122 1    
   111   56  123 1    
   112   56  124 1    
   113   57   58 2    
   114   57   59 am   BACKBONE|DICT|INTERRES
   115   59   60 1    
   116   59  125 1    
   117   60   61 1    
   118   60   62 1    
   119   60  126 1    
   120   61  127 1    
   121   61  128 1    
   122   61  129 1    
   123   62   63 2    
   124   62   64 am   BACKBONE|DICT|INTERRES
   125   64   65 1    
   126   64  130 1    
   127   65   66 1    
   128   65   69 1    
   129   65  131 1    
   130   66   67 am   BACKBONE|DICT|INTERRES
   131   66   68 2    
   132   67  132 1    
   133   67  133 1    
   134   69   70 1    
   135   69  134 1    
   136   69  135 1    
   137   70   71 1    
   138   71  136 1    
   139   71  137 1    
@<TRIPOS>SUBSTRUCTURE
     1 UNK         1 GROUP             0       ****    0 ROOT    
