@<TRIPOS>MOLECULE
3R137
137   139    1
SMALL
USER_CHARGES


@<TRIPOS>ATOM
      1 CA         26.0144   -1.6510    4.3239 C.3       0 UNK        -0.2020 
      2 C          26.4495   -1.1725    2.9467 C.2       0 UNK         0.4855 
      3 O          26.8808   -0.0277    2.8044 O.2       0 UNK        -0.5197 
      4 N          26.3483   -2.0410    1.9327 N.am      1 UNK        -0.4892 
      5 CA         26.6503   -1.7243    0.5337 C.3       1 UNK         0.0835 
      6 C6         26.8418   -3.0166   -0.3001 C.3       12 UNK        -0.0855 
      7 S7         27.7573   -2.7298   -1.8554 S.3       12 UNK        -0.2931 
      8 C8         29.3039   -3.6234   -1.5077 C.3       12 UNK         0.0378 
      9 C9         30.2015   -3.6856   -2.7336 C.ar      12 UNK        -0.0802 
     10 C10        31.3116   -2.8426   -2.8459 C.ar      12 UNK        -0.0944 
     11 C11        32.1479   -2.9190   -3.9640 C.ar      12 UNK        -0.0787 
     12 C12        31.8684   -3.8467   -4.9721 C.ar      12 UNK        -0.0862 
     13 C13        30.7657   -4.6991   -4.8678 C.ar      12 UNK        -0.0733 
     14 C14        29.9350   -4.6125   -3.7461 C.ar      12 UNK        -0.0832 
     15 C15        30.4924   -5.7361   -5.9500 C.3       12 UNK         0.0240 
     16 S16        30.0029   -4.9882   -7.5369 S.3       12 UNK        -0.2522 
     17 C17        28.4002   -4.2297   -7.1105 C.3       12 UNK        -0.0967 
     18 CA         28.1412   -2.9007   -7.8618 C.3       5 UNK         0.0660 
     19 N          26.7160   -2.5613   -7.8215 N.am      5 UNK        -0.4015 
     20 C          26.1425   -1.5116   -8.4240 C.2       4 UNK         0.4946 
     21 O          26.7435   -0.7332   -9.1648 O.2       4 UNK        -0.5353 
     22 CA         24.6629   -1.2381   -8.0924 C.3       4 UNK         0.0277 
     23 CB         23.7538   -1.8875   -9.1470 C.3       4 UNK        -0.1981 
     24 N          24.2331   -1.6546   -6.7462 N.am      4 UNK        -0.4209 
     25 C          24.8263   -1.3034   -5.5955 C.2       3 UNK         0.4942 
     26 O          25.8693   -0.6481   -5.5407 O.2       3 UNK        -0.5208 
     27 CA         24.1931   -1.8164   -4.2939 C.3       3 UNK         0.0250 
     28 CB         24.5587   -3.2928   -4.0671 C.3       3 UNK        -0.1990 
     29 N          24.6856   -1.0340   -3.1604 N.am      3 UNK        -0.4232 
     30 C          24.2676    0.1977   -2.8364 C.2       2 UNK         0.4993 
     31 O          23.2949    0.7440   -3.3599 O.2       2 UNK        -0.5286 
     32 CA         25.0954    0.9619   -1.7802 C.3       2 UNK         0.0209 
     33 CB         24.2324    1.9039   -0.9127 C.3       2 UNK        -0.1931 
     34 N          25.9467    0.0941   -0.9507 N.am      2 UNK        -0.4546 
     35 C          25.5436   -0.8360   -0.0717 C.2       1 UNK         0.5154 
     36 O          24.3641   -1.0508    0.2202 O.2       1 UNK        -0.5181 
     37 C          29.0483   -1.7529   -7.3513 C.2       5 UNK         0.5014 
     38 O          30.1128   -1.5223   -7.9249 O.2       5 UNK        -0.5248 
     39 N          28.5936   -1.0278   -6.3212 N.am      6 UNK        -0.4434 
     40 CA         29.2769    0.1384   -5.7677 C.3       6 UNK         0.0363 
     41 CB         29.1557    0.1084   -4.2352 C.3       6 UNK        -0.1936 
     42 C          28.6935    1.4463   -6.3204 C.2       6 UNK         0.5081 
     43 O          29.4515    2.3697   -6.6128 O.2       6 UNK        -0.5248 
     44 N          27.3607    1.5193   -6.4263 N.am      7 UNK        -0.4718 
     45 CA         26.6237    2.7444   -6.7356 C.3       7 UNK         0.0273 
     46 CB         25.1769    2.6001   -6.2353 C.3       7 UNK        -0.1935 
     47 C          26.6407    3.1437   -8.2195 C.2       7 UNK         0.5018 
     48 O          26.6000    4.3421   -8.5023 O.2       7 UNK        -0.5186 
     49 N          26.6677    2.1627   -9.1325 N.am      8 UNK        -0.4240 
     50 CA         26.5724    2.3860  -10.5781 C.3       8 UNK         0.0235 
     51 CB         25.3245    1.6766  -11.1341 C.3       8 UNK        -0.2000 
     52 C          27.8393    1.9224  -11.3053 C.2       8 UNK         0.4941 
     53 O          28.3940    2.6930  -12.0897 O.2       8 UNK        -0.5273 
     54 N          28.2778    0.6823  -11.0448 N.am      9 UNK        -0.4262 
     55 CA         29.4537    0.0805  -11.6850 C.3       9 UNK         0.0264 
     56 CB         29.4043   -1.4459  -11.5206 C.3       9 UNK        -0.1955 
     57 C          30.7898    0.6456  -11.1673 C.2       9 UNK         0.5031 
     58 O          31.7599    0.6573  -11.9269 O.2       9 UNK        -0.5390 
     59 N          30.7895    1.1200   -9.9122 N.am      10 UNK        -0.4204 
     60 CA         31.8883    1.7083   -9.1370 C.3       10 UNK         0.0237 
     61 CB         32.5411    2.8965   -9.8727 C.3       10 UNK        -0.1985 
     62 C          32.9404    0.6830   -8.6781 C.2       10 UNK         0.4970 
     63 O          33.2631   -0.2648   -9.3965 O.2       10 UNK        -0.4914 
     64 N          33.4840    0.9269   -7.4804 N.am      11 UNK        -0.4285 
     65 CA         34.5362    0.1126   -6.8494 C.3       11 UNK         0.1007 
     66 C          35.9696    0.3753   -7.3974 C.2       11 UNK         0.5703 
     67 N          36.1921    1.3776   -8.2400 N.am      11 UNK        -0.7361 
     68 O          36.8988   -0.3536   -7.0579 O.2       11 UNK        -0.4986 
     69 C69        34.4931    0.2366   -5.3029 C.3       12 UNK        -0.0947 
     70 S70        32.9061   -0.3460   -4.6202 S.3       12 UNK        -0.2240 
     71 C71        33.3666   -2.0175   -4.0773 C.3       12 UNK         0.0194 
     72 H72        25.6697   -2.6848    4.3073 H         1 UNK         0.0906 
     73 H73        26.8456   -1.5824    5.0252 H         1 UNK         0.0906 
     74 H74        25.2013   -1.0288    4.6972 H         1 UNK         0.0906 
     75 H75        25.9493   -2.9538    2.1007 H         1 UNK         0.3140 
     76 H76        27.5896   -1.1657    0.5262 H         1 UNK         0.1085 
     77 H77        27.3853   -3.7568    0.2893 H         1 UNK         0.0836 
     78 H78        25.8828   -3.4837   -0.5352 H         1 UNK         0.0836 
     79 H79        29.8202   -3.1402   -0.6765 H         1 UNK         0.0731 
     80 H80        29.0739   -4.6388   -1.1808 H         1 UNK         0.0731 
     81 H81        31.5268   -2.1256   -2.0653 H         1 UNK         0.1312 
     82 H82        32.5111   -3.9112   -5.8397 H         1 UNK         0.1406 
     83 H83        29.0808   -5.2697   -3.6539 H         1 UNK         0.1631 
     84 H84        29.7182   -6.4370   -5.6337 H         1 UNK         0.0717 
     85 H85        31.3939   -6.3300   -6.1069 H         1 UNK         0.0717 
     86 H86        27.6333   -4.9619   -7.3687 H         1 UNK         0.0934 
     87 H87        28.3177   -4.0812   -6.0328 H         1 UNK         0.0934 
     88 H88        28.3810   -3.0584   -8.9147 H         1 UNK         0.0739 
     89 H89        26.1342   -3.1376   -7.2327 H         1 UNK         0.3093 
     90 H90        24.5239   -0.1573   -8.1514 H         1 UNK         0.0818 
     91 H91        22.7125   -1.5963   -9.0081 H         1 UNK         0.0819 
     92 H92        24.0404   -1.5796  -10.1538 H         1 UNK         0.0819 
     93 H93        23.8068   -2.9763   -9.1121 H         1 UNK         0.0819 
     94 H94        23.3907   -2.2106   -6.7000 H         1 UNK         0.3041 
     95 H95        23.1076   -1.7155   -4.3588 H         1 UNK         0.0784 
     96 H96        24.1559   -3.9262   -4.8584 H         1 UNK         0.0793 
     97 H97        25.6390   -3.4444   -4.0455 H         1 UNK         0.0793 
     98 H98        24.1529   -3.6603   -3.1242 H         1 UNK         0.0793 
     99 H99        25.5201   -1.3817   -2.7105 H         1 UNK         0.3024 
    100 H100       25.7794    1.5895   -2.3544 H         1 UNK         0.1171 
    101 H101       24.8386    2.4349   -0.1788 H         1 UNK         0.0786 
    102 H102       23.7378    2.6571   -1.5273 H         1 UNK         0.0786 
    103 H103       23.4519    1.3634   -0.3766 H         1 UNK         0.0786 
    104 H104       26.9394    0.1721   -1.1279 H         1 UNK         0.2977 
    105 H105       27.6644   -1.2132   -5.9557 H         1 UNK         0.3127 
    106 H106       30.3374    0.1098   -6.0246 H         1 UNK         0.0770 
    107 H107       28.1161    0.1431   -3.9069 H         1 UNK         0.0814 
    108 H108       29.6734    0.9567   -3.7861 H         1 UNK         0.0814 
    109 H109       29.6028   -0.7967   -3.8257 H         1 UNK         0.0814 
    110 H110       26.8049    0.7151   -6.1375 H         1 UNK         0.2983 
    111 H111       27.0859    3.5633   -6.1792 H         1 UNK         0.0947 
    112 H112       24.6090    3.5149   -6.4103 H         1 UNK         0.0806 
    113 H113       25.1450    2.4001   -5.1641 H         1 UNK         0.0806 
    114 H114       24.6518    1.7893   -6.7399 H         1 UNK         0.0806 
    115 H115       26.7312    1.1967   -8.8273 H         1 UNK         0.3000 
    116 H116       26.4589    3.4508  -10.7930 H         1 UNK         0.0850 
    117 H117       25.2238    1.8513  -12.2061 H         1 UNK         0.0810 
    118 H118       24.4163    2.0479  -10.6594 H         1 UNK         0.0810 
    119 H119       25.3610    0.5977  -10.9840 H         1 UNK         0.0810 
    120 H120       27.7487    0.0985  -10.3972 H         1 UNK         0.3040 
    121 H121       29.4011    0.2996  -12.7538 H         1 UNK         0.0766 
    122 H122       29.4974   -1.7378  -10.4765 H         1 UNK         0.0812 
    123 H123       30.2228   -1.9212  -12.0628 H         1 UNK         0.0812 
    124 H124       28.4728   -1.8606  -11.9061 H         1 UNK         0.0812 
    125 H125       29.9301    1.0000   -9.3958 H         1 UNK         0.3205 
    126 H126       31.4156    2.1077   -8.2404 H         1 UNK         0.0754 
    127 H127       33.2314    3.4290   -9.2176 H         1 UNK         0.0769 
    128 H128       31.7928    3.6155  -10.2064 H         1 UNK         0.0769 
    129 H129       33.1103    2.5744  -10.7452 H         1 UNK         0.0769 
    130 H130       33.1756    1.7290   -6.9514 H         1 UNK         0.2981 
    131 H131       34.3283   -0.9319   -7.0906 H         1 UNK         0.0541 
    132 H132       35.4387    1.9776   -8.5326 H         1 UNK         0.3459 
    133 H133       37.1253    1.5302   -8.5889 H         1 UNK         0.3459 
    134 H134       34.6371    1.2750   -5.0000 H         1 UNK         0.0612 
    135 H135       35.3041   -0.3276   -4.8383 H         1 UNK         0.0612 
    136 H136       33.8791   -1.9562   -3.1162 H         1 UNK         0.0624 
    137 H137       34.0808   -2.4461   -4.7823 H         1 UNK         0.0624 
@<TRIPOS>BOND
     1    1    2 1    
     2    1   72 1    
     3    1   73 1    
     4    1   74 1    
     5    2    3 2    
     6    2    4 am   BACKBONE|DICT|INTERRES
     7    4    5 1    
     8    4   75 1    
     9    5    6 1    
    10    5   35 1    
    11    5   76 1    
    12    6    7 1    
    13    6   77 1    
    14    6   78 1    
    15    7    8 1    
    16    8    9 1    
    17    8   79 1    
    18    8   80 1    
    19    9   10 ar   
    20    9   14 ar   
    21   10   11 ar   
    22   10   81 1    
    23   11   12 ar   
    24   11   71 1    
    25   12   13 ar   
    26   12   82 1    
    27   13   14 ar   
    28   13   15 1    
    29   14   83 1    
    30   15   16 1    
    31   15   84 1    
    32   15   85 1    
    33   16   17 1    
    34   17   18 1    
    35   17   86 1    
    36   17   87 1    
    37   18   19 1    
    38   18   37 1    
    39   18   88 1    
    40   19   20 am   BACKBONE|DICT|INTERRES
    41   19   89 1    
    42   20   21 2    
    43   20   22 1    
    44   22   23 1    
    45   22   24 1    
    46   22   90 1    
    47   23   91 1    
    48   23   92 1    
    49   23   93 1    
    50   24   25 am   BACKBONE|DICT|INTERRES
    51   24   94 1    
    52   25   26 2    
    53   25   27 1    
    54   27   28 1    
    55   27   29 1    
    56   27   95 1    
    57   28   96 1    
    58   28   97 1    
    59   28   98 1    
    60   29   30 am   BACKBONE|DICT|INTERRES
    61   29   99 1    
    62   30   31 2    
    63   30   32 1    
    64   32   33 1    
    65   32   34 1    
    66   32  100 1    
    67   33  101 1    
    68   33  102 1    
    69   33  103 1    
    70   34   35 am   BACKBONE|DICT|INTERRES
    71   34  104 1    
    72   35   36 2    
    73   37   38 2    
    74   37   39 am   BACKBONE|DICT|INTERRES
    75   39   40 1    
    76   39  105 1    
    77   40   41 1    
    78   40   42 1    
    79   40  106 1    
    80   41  107 1    
    81   41  108 1    
    82   41  109 1    
    83   42   43 2    
    84   42   44 am   BACKBONE|DICT|INTERRES
    85   44   45 1    
    86   44  110 1    
    87   45   46 1    
    88   45   47 1    
    89   45  111 1    
    90   46  112 1    
    91   46  113 1    
    92   46  114 1    
    93   47   48 2    
    94   47   49 am   BACKBONE|DICT|INTERRES
    95   49   50 1    
    96   49  115 1    
    97   50   51 1    
    98   50   52 1    
    99   50  116 1    
   100   51  117 1    
   101   51  118 1    
   102   51  119 1    
   103   52   53 2    
   104   52   54 am   BACKBONE|DICT|INTERRES
   105   54   55 1    
   106   54  120 1    
   107   55   56 1    
   108   55   57 1    
   109   55  121 1    
   110   56  122 1    
   111   56  123 1    
   112   56  124 1    
   113   57   58 2    
   114   57   59 am   BACKBONE|DICT|INTERRES
   115   59   60 1    
   116   59  125 1    
   117   60   61 1    
   118   60   62 1    
   119   60  126 1    
   120   61  127 1    
   121   61  128 1    
   122   61  129 1    
   123   62   63 2    
   124   62   64 am   BACKBONE|DICT|INTERRES
   125   64   65 1    
   126   64  130 1    
   127   65   66 1    
   128   65   69 1    
   129   65  131 1    
   130   66   67 am   BACKBONE|DICT|INTERRES
   131   66   68 2    
   132   67  132 1    
   133   67  133 1    
   134   69   70 1    
   135   69  134 1    
   136   69  135 1    
   137   70   71 1    
   138   71  136 1    
   139   71  137 1    
@<TRIPOS>SUBSTRUCTURE
     1 UNK         1 GROUP             0       ****    0 ROOT    
