@<TRIPOS>MOLECULE
3R137
137   139    1
SMALL
USER_CHARGES


@<TRIPOS>ATOM
      1 CA         24.1173   -5.1688   -0.8949 C.3       0 UNK        -0.2020 
      2 C          25.0189   -5.6752   -2.0178 C.2       0 UNK         0.4855 
      3 O          24.5461   -6.4084   -2.8834 O.2       0 UNK        -0.5197 
      4 N          26.3137   -5.3317   -2.0512 N.am      1 UNK        -0.4892 
      5 CA         27.0130   -4.3868   -1.1760 C.3       1 UNK         0.0835 
      6 C6         28.5282   -4.7064   -1.1432 C.3       12 UNK        -0.0855 
      7 S7         29.4282   -3.7951    0.1593 S.3       12 UNK        -0.2931 
      8 C8         31.1158   -3.7120   -0.5337 C.3       12 UNK         0.0378 
      9 C9         31.1665   -2.9119   -1.8285 C.ar      12 UNK        -0.0802 
     10 C10        31.4270   -3.5481   -3.0456 C.ar      12 UNK        -0.0944 
     11 C11        31.4152   -2.8326   -4.2470 C.ar      12 UNK        -0.0787 
     12 C12        31.1271   -1.4599   -4.2166 C.ar      12 UNK        -0.0862 
     13 C13        30.8837   -0.8078   -3.0041 C.ar      12 UNK        -0.0733 
     14 C14        30.9240   -1.5373   -1.8122 C.ar      12 UNK        -0.0832 
     15 C15        30.5414    0.6754   -2.9794 C.3       12 UNK         0.0240 
     16 S16        28.8915    0.9291   -2.2561 S.3       12 UNK        -0.2522 
     17 C17        28.1478    2.2250   -3.2994 C.3       12 UNK        -0.0967 
     18 CA         27.9315    1.8454   -4.7914 C.3       5 UNK         0.0660 
     19 N          27.5594    0.4454   -5.0107 N.am      5 UNK        -0.4015 
     20 C          27.5789   -0.1692   -6.2024 C.2       4 UNK         0.4946 
     21 O          27.9822    0.3589   -7.2399 O.2       4 UNK        -0.5353 
     22 CA         27.0152   -1.5978   -6.2576 C.3       4 UNK         0.0277 
     23 CB         28.1176   -2.6316   -5.9861 C.3       4 UNK        -0.1981 
     24 N          25.9104   -1.7939   -5.3156 N.am      4 UNK        -0.4209 
     25 C          24.6881   -1.2639   -5.4778 C.2       3 UNK         0.4942 
     26 O          24.3636   -0.5957   -6.4579 O.2       3 UNK        -0.5208 
     27 CA         23.6635   -1.4683   -4.3465 C.3       3 UNK         0.0250 
     28 CB         22.8801   -2.7730   -4.5613 C.3       3 UNK        -0.1990 
     29 N          24.2582   -1.4766   -3.0091 N.am      3 UNK        -0.4232 
     30 C          24.9696   -0.4764   -2.4710 C.2       2 UNK         0.4993 
     31 O          25.1384    0.6130   -3.0211 O.2       2 UNK        -0.5286 
     32 CA         25.6489   -0.7545   -1.1159 C.3       2 UNK         0.0209 
     33 CB         24.7620   -0.2483    0.0324 C.3       2 UNK        -0.1931 
     34 N          26.0173   -2.1574   -0.8602 N.am      2 UNK        -0.4546 
     35 C          26.7263   -2.9562   -1.6748 C.2       1 UNK         0.5154 
     36 O          27.0997   -2.6283   -2.8022 O.2       1 UNK        -0.5181 
     37 C          26.8917    2.7804   -5.4355 C.2       5 UNK         0.5014 
     38 O          27.2712    3.7155   -6.1398 O.2       5 UNK        -0.5248 
     39 N          25.6012    2.4849   -5.2104 N.am      6 UNK        -0.4434 
     40 CA         24.4582    3.1969   -5.7906 C.3       6 UNK         0.0363 
     41 CB         23.1549    2.6641   -5.1749 C.3       6 UNK        -0.1936 
     42 C          24.4090    3.1133   -7.3267 C.2       6 UNK         0.5081 
     43 O          24.0984    4.1111   -7.9774 O.2       6 UNK        -0.5248 
     44 N          24.7512    1.9414   -7.8799 N.am      7 UNK        -0.4718 
     45 CA         24.9023    1.7069   -9.3197 C.3       7 UNK         0.0273 
     46 CB         24.8969    0.1916   -9.5809 C.3       7 UNK        -0.1935 
     47 C          26.1697    2.3423   -9.9248 C.2       7 UNK         0.5018 
     48 O          26.2648    2.4147  -11.1508 O.2       7 UNK        -0.5186 
     49 N          27.1131    2.7691   -9.0707 N.am      8 UNK        -0.4240 
     50 CA         28.4339    3.3202   -9.3900 C.3       8 UNK         0.0235 
     51 CB         28.3061    4.6916  -10.0872 C.3       8 UNK        -0.2000 
     52 C          29.3129    2.3196  -10.1640 C.2       8 UNK         0.4941 
     53 O          29.9182    2.6802  -11.1765 O.2       8 UNK        -0.5273 
     54 N          29.3513    1.0703   -9.6800 N.am      9 UNK        -0.4262 
     55 CA         30.1590   -0.0141  -10.2393 C.3       9 UNK         0.0264 
     56 CB         29.7304   -1.3377   -9.5884 C.3       9 UNK        -0.1955 
     57 C          31.6651    0.2270  -10.0358 C.2       9 UNK         0.5031 
     58 O          32.0686    0.8093   -9.0244 O.2       9 UNK        -0.5390 
     59 N          32.4771   -0.2588  -10.9837 N.am      10 UNK        -0.4204 
     60 CA         33.9392   -0.1371  -10.9988 C.3       10 UNK         0.0237 
     61 CB         34.4354   -0.2802  -12.4505 C.3       10 UNK        -0.1985 
     62 C          34.6219   -1.1314  -10.0366 C.2       10 UNK         0.4970 
     63 O          35.4375   -1.9499  -10.4655 O.2       10 UNK        -0.4914 
     64 N          34.2600   -1.0497   -8.7531 N.am      11 UNK        -0.4285 
     65 CA         34.7660   -1.9019   -7.6655 C.3       11 UNK         0.1007 
     66 C          36.1993   -1.5426   -7.1759 C.2       11 UNK         0.5703 
     67 N          36.7825   -0.4198   -7.5799 N.am      11 UNK        -0.7361 
     68 O          36.7989   -2.3053   -6.4217 O.2       11 UNK        -0.4986 
     69 C69        33.7665   -1.9495   -6.4815 C.3       12 UNK        -0.0947 
     70 S70        32.1309   -2.5800   -6.9877 S.3       12 UNK        -0.2240 
     71 C71        31.6694   -3.5995   -5.5472 C.3       12 UNK         0.0194 
     72 H72        24.5358   -5.4000    0.0839 H         1 UNK         0.0906 
     73 H73        23.9560   -4.0952   -0.9706 H         1 UNK         0.0906 
     74 H74        23.1409   -5.6502   -0.9498 H         1 UNK         0.0906 
     75 H75        26.8663   -5.6689   -2.8268 H         1 UNK         0.3140 
     76 H76        26.6376   -4.4954   -0.1572 H         1 UNK         0.1085 
     77 H77        28.9756   -4.5171   -2.1199 H         1 UNK         0.0836 
     78 H78        28.6775   -5.7701   -0.9499 H         1 UNK         0.0836 
     79 H79        31.4895   -4.7258   -0.6864 H         1 UNK         0.0731 
     80 H80        31.7776   -3.2488    0.1995 H         1 UNK         0.0731 
     81 H81        31.6177   -4.6126   -3.0613 H         1 UNK         0.1312 
     82 H82        31.0754   -0.8930   -5.1350 H         1 UNK         0.1406 
     83 H83        30.7161   -1.0424   -0.8731 H         1 UNK         0.1631 
     84 H84        30.5848    1.0963   -3.9840 H         1 UNK         0.0717 
     85 H85        31.2816    1.2127   -2.3853 H         1 UNK         0.0717 
     86 H86        27.1989    2.4777   -2.8210 H         1 UNK         0.0934 
     87 H87        28.7604    3.1257   -3.2282 H         1 UNK         0.0934 
     88 H88        28.8757    2.0074   -5.3154 H         1 UNK         0.0739 
     89 H89        27.2163   -0.0566   -4.2036 H         1 UNK         0.3093 
     90 H90        26.6374   -1.7657   -7.2682 H         1 UNK         0.0818 
     91 H91        28.5451   -2.5145   -4.9902 H         1 UNK         0.0819 
     92 H92        27.7378   -3.6497   -6.0688 H         1 UNK         0.0819 
     93 H93        28.9326   -2.5304   -6.7023 H         1 UNK         0.0819 
     94 H94        26.1374   -2.2718   -4.4470 H         1 UNK         0.3041 
     95 H95        22.9596   -0.6349   -4.3864 H         1 UNK         0.0784 
     96 H96        23.5270   -3.6493   -4.4974 H         1 UNK         0.0793 
     97 H97        22.4090   -2.7867   -5.5453 H         1 UNK         0.0793 
     98 H98        22.0860   -2.8865   -3.8230 H         1 UNK         0.0793 
     99 H99        24.1751   -2.3315   -2.4818 H         1 UNK         0.3024 
    100 H100       26.5730   -0.1774   -1.1032 H         1 UNK         0.1171 
    101 H101       25.2773   -0.3115    0.9910 H         1 UNK         0.0786 
    102 H102       24.4901    0.7981   -0.1161 H         1 UNK         0.0786 
    103 H103       23.8351   -0.8181    0.1090 H         1 UNK         0.0786 
    104 H104       25.7574   -2.5137    0.0484 H         1 UNK         0.2977 
    105 H105       25.3876    1.7246   -4.5678 H         1 UNK         0.3127 
    106 H106       24.5578    4.2502   -5.5202 H         1 UNK         0.0770 
    107 H107       22.9941    1.6139   -5.4188 H         1 UNK         0.0814 
    108 H108       22.2932    3.2203   -5.5463 H         1 UNK         0.0814 
    109 H109       23.1599    2.7587   -4.0888 H         1 UNK         0.0814 
    110 H110       24.9009    1.1400   -7.2730 H         1 UNK         0.2983 
    111 H111       24.0433    2.1470   -9.8308 H         1 UNK         0.0947 
    112 H112       24.9668   -0.0239  -10.6479 H         1 UNK         0.0806 
    113 H113       23.9793   -0.2713   -9.2173 H         1 UNK         0.0806 
    114 H114       25.7382   -0.3015   -9.0926 H         1 UNK         0.0806 
    115 H115       26.9274    2.6570   -8.0817 H         1 UNK         0.3000 
    116 H116       28.9333    3.4834   -8.4337 H         1 UNK         0.0850 
    117 H117       29.2850    5.1539  -10.2194 H         1 UNK         0.0810 
    118 H118       27.7000    5.3793   -9.4975 H         1 UNK         0.0810 
    119 H119       27.8520    4.6052  -11.0748 H         1 UNK         0.0810 
    120 H120       28.8440    0.8613   -8.8211 H         1 UNK         0.3040 
    121 H121       29.9530   -0.0681  -11.3104 H         1 UNK         0.0766 
    122 H122       28.6755   -1.5466   -9.7675 H         1 UNK         0.0812 
    123 H123       29.8861   -1.3128   -8.5101 H         1 UNK         0.0812 
    124 H124       30.3027   -2.1785   -9.9823 H         1 UNK         0.0812 
    125 H125       32.0661   -0.7638  -11.7561 H         1 UNK         0.3205 
    126 H126       34.2058    0.8662  -10.6593 H         1 UNK         0.0754 
    127 H127       33.9870    0.4728  -13.0991 H         1 UNK         0.0769 
    128 H128       34.2013   -1.2622  -12.8639 H         1 UNK         0.0769 
    129 H129       35.5170   -0.1505  -12.5093 H         1 UNK         0.0769 
    130 H130       33.5525   -0.3650   -8.5035 H         1 UNK         0.2981 
    131 H131       34.8431   -2.9167   -8.0607 H         1 UNK         0.0541 
    132 H132       36.2999    0.2132   -8.1966 H         1 UNK         0.3459 
    133 H133       37.7130   -0.2033   -7.2590 H         1 UNK         0.3459 
    134 H134       33.6350   -0.9563   -6.0485 H         1 UNK         0.0612 
    135 H135       34.1528   -2.5844   -5.6820 H         1 UNK         0.0612 
    136 H136       32.4511   -4.3443   -5.3902 H         1 UNK         0.0624 
    137 H137       30.7645   -4.1533   -5.7993 H         1 UNK         0.0624 
@<TRIPOS>BOND
     1    1    2 1    
     2    1   72 1    
     3    1   73 1    
     4    1   74 1    
     5    2    3 2    
     6    2    4 am   BACKBONE|DICT|INTERRES
     7    4    5 1    
     8    4   75 1    
     9    5    6 1    
    10    5   35 1    
    11    5   76 1    
    12    6    7 1    
    13    6   77 1    
    14    6   78 1    
    15    7    8 1    
    16    8    9 1    
    17    8   79 1    
    18    8   80 1    
    19    9   10 ar   
    20    9   14 ar   
    21   10   11 ar   
    22   10   81 1    
    23   11   12 ar   
    24   11   71 1    
    25   12   13 ar   
    26   12   82 1    
    27   13   14 ar   
    28   13   15 1    
    29   14   83 1    
    30   15   16 1    
    31   15   84 1    
    32   15   85 1    
    33   16   17 1    
    34   17   18 1    
    35   17   86 1    
    36   17   87 1    
    37   18   19 1    
    38   18   37 1    
    39   18   88 1    
    40   19   20 am   BACKBONE|DICT|INTERRES
    41   19   89 1    
    42   20   21 2    
    43   20   22 1    
    44   22   23 1    
    45   22   24 1    
    46   22   90 1    
    47   23   91 1    
    48   23   92 1    
    49   23   93 1    
    50   24   25 am   BACKBONE|DICT|INTERRES
    51   24   94 1    
    52   25   26 2    
    53   25   27 1    
    54   27   28 1    
    55   27   29 1    
    56   27   95 1    
    57   28   96 1    
    58   28   97 1    
    59   28   98 1    
    60   29   30 am   BACKBONE|DICT|INTERRES
    61   29   99 1    
    62   30   31 2    
    63   30   32 1    
    64   32   33 1    
    65   32   34 1    
    66   32  100 1    
    67   33  101 1    
    68   33  102 1    
    69   33  103 1    
    70   34   35 am   BACKBONE|DICT|INTERRES
    71   34  104 1    
    72   35   36 2    
    73   37   38 2    
    74   37   39 am   BACKBONE|DICT|INTERRES
    75   39   40 1    
    76   39  105 1    
    77   40   41 1    
    78   40   42 1    
    79   40  106 1    
    80   41  107 1    
    81   41  108 1    
    82   41  109 1    
    83   42   43 2    
    84   42   44 am   BACKBONE|DICT|INTERRES
    85   44   45 1    
    86   44  110 1    
    87   45   46 1    
    88   45   47 1    
    89   45  111 1    
    90   46  112 1    
    91   46  113 1    
    92   46  114 1    
    93   47   48 2    
    94   47   49 am   BACKBONE|DICT|INTERRES
    95   49   50 1    
    96   49  115 1    
    97   50   51 1    
    98   50   52 1    
    99   50  116 1    
   100   51  117 1    
   101   51  118 1    
   102   51  119 1    
   103   52   53 2    
   104   52   54 am   BACKBONE|DICT|INTERRES
   105   54   55 1    
   106   54  120 1    
   107   55   56 1    
   108   55   57 1    
   109   55  121 1    
   110   56  122 1    
   111   56  123 1    
   112   56  124 1    
   113   57   58 2    
   114   57   59 am   BACKBONE|DICT|INTERRES
   115   59   60 1    
   116   59  125 1    
   117   60   61 1    
   118   60   62 1    
   119   60  126 1    
   120   61  127 1    
   121   61  128 1    
   122   61  129 1    
   123   62   63 2    
   124   62   64 am   BACKBONE|DICT|INTERRES
   125   64   65 1    
   126   64  130 1    
   127   65   66 1    
   128   65   69 1    
   129   65  131 1    
   130   66   67 am   BACKBONE|DICT|INTERRES
   131   66   68 2    
   132   67  132 1    
   133   67  133 1    
   134   69   70 1    
   135   69  134 1    
   136   69  135 1    
   137   70   71 1    
   138   71  136 1    
   139   71  137 1    
@<TRIPOS>SUBSTRUCTURE
     1 UNK         1 GROUP             0       ****    0 ROOT    
