@<TRIPOS>MOLECULE
3R137
137   139    1
SMALL
USER_CHARGES


@<TRIPOS>ATOM
      1 CA         24.2608   -6.3631   -4.3219 C.3       0 UNK        -0.2020 
      2 C          25.1321   -5.3527   -3.5925 C.2       0 UNK         0.4855 
      3 O          25.4488   -4.3043   -4.1545 O.2       0 UNK        -0.5197 
      4 N          25.5175   -5.6536   -2.3438 N.am      1 UNK        -0.4892 
      5 CA         26.3315   -4.7976   -1.4692 C.3       1 UNK         0.0835 
      6 C6         27.7875   -4.6489   -2.0018 C.3       12 UNK        -0.0855 
      7 S7         28.9803   -4.2846   -0.6738 S.3       12 UNK        -0.2931 
      8 C8         30.5554   -4.3943   -1.5796 C.3       12 UNK         0.0378 
      9 C9         30.7901   -3.1930   -2.4863 C.ar      12 UNK        -0.0802 
     10 C10        30.9039   -3.3581   -3.8698 C.ar      12 UNK        -0.0944 
     11 C11        31.1970   -2.2662   -4.6930 C.ar      12 UNK        -0.0787 
     12 C12        31.3521   -0.9975   -4.1257 C.ar      12 UNK        -0.0862 
     13 C13        31.2175   -0.8135   -2.7447 C.ar      12 UNK        -0.0733 
     14 C14        30.9455   -1.9189   -1.9328 C.ar      12 UNK        -0.0832 
     15 C15        31.3886    0.5620   -2.1028 C.3       12 UNK         0.0240 
     16 S16        30.5431    1.9219   -2.9814 S.3       12 UNK        -0.2522 
     17 C17        28.8518    1.2726   -3.1970 C.3       12 UNK        -0.0967 
     18 CA         28.4805    1.1817   -4.7027 C.3       5 UNK         0.0660 
     19 N          27.7418   -0.0381   -5.0282 N.am      5 UNK        -0.4015 
     20 C          27.5714   -0.5171   -6.2684 C.2       4 UNK         0.4946 
     21 O          28.0745   -0.0158   -7.2739 O.2       4 UNK        -0.5353 
     22 CA         26.6605   -1.7475   -6.4200 C.3       4 UNK         0.0277 
     23 CB         27.4887   -3.0376   -6.3144 C.3       4 UNK        -0.1981 
     24 N          25.5686   -1.7848   -5.4417 N.am      4 UNK        -0.4209 
     25 C          24.5964   -0.8648   -5.3509 C.2       3 UNK         0.4942 
     26 O          24.4808    0.0842   -6.1244 O.2       3 UNK        -0.5208 
     27 CA         23.6371   -0.9753   -4.1554 C.3       3 UNK         0.0250 
     28 CB         22.5757   -2.0599   -4.3976 C.3       3 UNK        -0.1990 
     29 N          24.3320   -1.2322   -2.8912 N.am      3 UNK        -0.4232 
     30 C          25.2627   -0.4447   -2.3352 C.2       2 UNK         0.4993 
     31 O          25.6326    0.6209   -2.8284 O.2       2 UNK        -0.5286 
     32 CA         25.9440   -0.9432   -1.0473 C.3       2 UNK         0.0209 
     33 CB         25.0821   -0.6486    0.1956 C.3       2 UNK        -0.1931 
     34 N          26.3673   -2.3513   -1.1117 N.am      2 UNK        -0.4546 
     35 C          25.6104   -3.4561   -1.1828 C.2       1 UNK         0.5154 
     36 O          24.3805   -3.4418   -1.0776 O.2       1 UNK        -0.5181 
     37 C          27.7134    2.4292   -5.1783 C.2       5 UNK         0.5014 
     38 O          28.2920    3.2739   -5.8616 O.2       5 UNK        -0.5248 
     39 N          26.4154    2.4982   -4.8447 N.am      6 UNK        -0.4434 
     40 CA         25.4938    3.5631   -5.2531 C.3       6 UNK         0.0363 
     41 CB         24.1394    3.3619   -4.5552 C.3       6 UNK        -0.1936 
     42 C          25.3129    3.6572   -6.7787 C.2       6 UNK         0.5081 
     43 O          25.2584    4.7634   -7.3163 O.2       6 UNK        -0.5248 
     44 N          25.2588    2.4996   -7.4506 N.am      7 UNK        -0.4718 
     45 CA         25.2206    2.3759   -8.9104 C.3       7 UNK         0.0273 
     46 CB         24.7502    0.9576   -9.2739 C.3       7 UNK        -0.1935 
     47 C          26.5680    2.6748   -9.5959 C.2       7 UNK         0.5018 
     48 O          26.5827    2.8468  -10.8155 O.2       7 UNK        -0.5186 
     49 N          27.6628    2.7061   -8.8191 N.am      8 UNK        -0.4240 
     50 CA         29.0609    2.8451   -9.2424 C.3       8 UNK         0.0235 
     51 CB         29.3260    4.2514   -9.8202 C.3       8 UNK        -0.2000 
     52 C          29.5024    1.7082  -10.1840 C.2       8 UNK         0.4941 
     53 O          30.1733    1.9551  -11.1898 O.2       8 UNK        -0.5273 
     54 N          29.1152    0.4713   -9.8449 N.am      9 UNK        -0.4262 
     55 CA         29.3978   -0.7467  -10.6046 C.3       9 UNK         0.0264 
     56 CB         28.3493   -1.8135  -10.2395 C.3       9 UNK        -0.1955 
     57 C          30.8433   -1.2233  -10.3719 C.2       9 UNK         0.5031 
     58 O          31.0569   -2.2841   -9.7822 O.2       9 UNK        -0.5390 
     59 N          31.8017   -0.4095  -10.8354 N.am      10 UNK        -0.4204 
     60 CA         33.2516   -0.5514  -10.6752 C.3       10 UNK         0.0237 
     61 CB         33.7743   -1.8043  -11.4180 C.3       10 UNK        -0.1985 
     62 C          33.6634   -0.4578   -9.1916 C.2       10 UNK         0.4970 
     63 O          33.1943    0.4510   -8.5024 O.2       10 UNK        -0.4914 
     64 N          34.5383   -1.3670   -8.7425 N.am      11 UNK        -0.4285 
     65 CA         35.1301   -1.4239   -7.3945 C.3       11 UNK         0.1007 
     66 C          36.0932   -0.2316   -7.1012 C.2       11 UNK         0.5703 
     67 N          36.4712   -0.0069   -5.8491 N.am      11 UNK        -0.7361 
     68 O          36.5505    0.4667   -8.0053 O.2       11 UNK        -0.4986 
     69 C69        34.0793   -1.6687   -6.2693 C.3       12 UNK        -0.0947 
     70 S70        33.0246   -3.1263   -6.5780 S.3       12 UNK        -0.2240 
     71 C71        31.3721   -2.4679   -6.1915 C.3       12 UNK         0.0194 
     72 H72        24.0652   -7.2476   -3.7159 H         1 UNK         0.0906 
     73 H73        23.3044   -5.9112   -4.5833 H         1 UNK         0.0906 
     74 H74        24.7497   -6.6823   -5.2419 H         1 UNK         0.0906 
     75 H75        25.1909   -6.5123   -1.9221 H         1 UNK         0.3140 
     76 H76        26.3705   -5.3190   -0.5112 H         1 UNK         0.1085 
     77 H77        27.8588   -3.9005   -2.7938 H         1 UNK         0.0836 
     78 H78        28.1034   -5.5873   -2.4610 H         1 UNK         0.0836 
     79 H79        30.5862   -5.3272   -2.1448 H         1 UNK         0.0731 
     80 H80        31.3704   -4.4511   -0.8566 H         1 UNK         0.0731 
     81 H81        30.7971   -4.3415   -4.3072 H         1 UNK         0.1312 
     82 H82        31.5814   -0.1517   -4.7587 H         1 UNK         0.1406 
     83 H83        30.8620   -1.7945   -0.8613 H         1 UNK         0.1631 
     84 H84        32.4534    0.7913   -2.0476 H         1 UNK         0.0717 
     85 H85        31.0235    0.5504   -1.0746 H         1 UNK         0.0717 
     86 H86        28.7852    0.2923   -2.7244 H         1 UNK         0.0934 
     87 H87        28.1582    1.8998   -2.6327 H         1 UNK         0.0934 
     88 H88        29.4010    1.1340   -5.2895 H         1 UNK         0.0739 
     89 H89        27.2430   -0.4812   -4.2719 H         1 UNK         0.3093 
     90 H90        26.2138   -1.7058   -7.4154 H         1 UNK         0.0818 
     91 H91        28.2976   -3.0463   -7.0445 H         1 UNK         0.0819 
     92 H92        27.9385   -3.1504   -5.3270 H         1 UNK         0.0819 
     93 H93        26.8753   -3.9184   -6.5048 H         1 UNK         0.0819 
     94 H94        25.5465   -2.5888   -4.8148 H         1 UNK         0.3041 
     95 H95        23.1259   -0.0157   -4.0558 H         1 UNK         0.0784 
     96 H96        22.0350   -1.8754   -5.3269 H         1 UNK         0.0793 
     97 H97        23.0191   -3.0534   -4.4696 H         1 UNK         0.0793 
     98 H98        21.8399   -2.0800   -3.5935 H         1 UNK         0.0793 
     99 H99        24.1143   -2.0999   -2.4079 H         1 UNK         0.3024 
    100 H100       26.8637   -0.3646   -0.9431 H         1 UNK         0.1171 
    101 H101       25.5859   -0.9619    1.1100 H         1 UNK         0.0786 
    102 H102       24.8858    0.4208    0.2841 H         1 UNK         0.0786 
    103 H103       24.1146   -1.1496    0.1571 H         1 UNK         0.0786 
    104 H104       27.3670   -2.4956   -1.1855 H         1 UNK         0.2977 
    105 H105       26.0327    1.7709   -4.2427 H         1 UNK         0.3127 
    106 H106       25.9168    4.5105   -4.9124 H         1 UNK         0.0770 
    107 H107       23.6725    2.4201   -4.8452 H         1 UNK         0.0814 
    108 H108       23.4454    4.1634   -4.8116 H         1 UNK         0.0814 
    109 H109       24.2482    3.3602   -3.4704 H         1 UNK         0.0814 
    110 H110       25.2150    1.6317   -6.9196 H         1 UNK         0.2983 
    111 H111       24.4920    3.0914   -9.2976 H         1 UNK         0.0947 
    112 H112       24.6644    0.8363  -10.3546 H         1 UNK         0.0806 
    113 H113       23.7717    0.7411   -8.8448 H         1 UNK         0.0806 
    114 H114       25.4482    0.2003   -8.9147 H         1 UNK         0.0806 
    115 H115       27.5324    2.5602   -7.8253 H         1 UNK         0.3000 
    116 H116       29.6631    2.7401   -8.3385 H         1 UNK         0.0850 
    117 H117       30.3881    4.3961  -10.0214 H         1 UNK         0.0810 
    118 H118       29.0197    5.0297   -9.1212 H         1 UNK         0.0810 
    119 H119       28.7933    4.4125  -10.7579 H         1 UNK         0.0810 
    120 H120       28.6394    0.3423   -8.9512 H         1 UNK         0.3040 
    121 H121       29.2902   -0.5300  -11.6697 H         1 UNK         0.0766 
    122 H122       27.3382   -1.4660  -10.4523 H         1 UNK         0.0812 
    123 H123       28.3971   -2.0760   -9.1834 H         1 UNK         0.0812 
    124 H124       28.5071   -2.7286  -10.8116 H         1 UNK         0.0812 
    125 H125       31.4842    0.4779  -11.2179 H         1 UNK         0.3205 
    126 H126       33.6922    0.3211  -11.1597 H         1 UNK         0.0754 
    127 H127       34.8645   -1.8265  -11.4409 H         1 UNK         0.0769 
    128 H128       33.4385   -1.8104  -12.4551 H         1 UNK         0.0769 
    129 H129       33.4302   -2.7310  -10.9571 H         1 UNK         0.0769 
    130 H130       34.8744   -2.0620   -9.3918 H         1 UNK         0.2981 
    131 H131       35.7825   -2.2972   -7.4178 H         1 UNK         0.0541 
    132 H132       36.1330   -0.5775   -5.0908 H         1 UNK         0.3459 
    133 H133       37.1095    0.7503   -5.6607 H         1 UNK         0.3459 
    134 H134       33.4570   -0.7827   -6.1422 H         1 UNK         0.0612 
    135 H135       34.5687   -1.8354   -5.3091 H         1 UNK         0.0612 
    136 H136       31.2051   -1.5380   -6.7386 H         1 UNK         0.0624 
    137 H137       30.6259   -3.1742   -6.5555 H         1 UNK         0.0624 
@<TRIPOS>BOND
     1    1    2 1    
     2    1   72 1    
     3    1   73 1    
     4    1   74 1    
     5    2    3 2    
     6    2    4 am   BACKBONE|DICT|INTERRES
     7    4    5 1    
     8    4   75 1    
     9    5    6 1    
    10    5   35 1    
    11    5   76 1    
    12    6    7 1    
    13    6   77 1    
    14    6   78 1    
    15    7    8 1    
    16    8    9 1    
    17    8   79 1    
    18    8   80 1    
    19    9   10 ar   
    20    9   14 ar   
    21   10   11 ar   
    22   10   81 1    
    23   11   12 ar   
    24   11   71 1    
    25   12   13 ar   
    26   12   82 1    
    27   13   14 ar   
    28   13   15 1    
    29   14   83 1    
    30   15   16 1    
    31   15   84 1    
    32   15   85 1    
    33   16   17 1    
    34   17   18 1    
    35   17   86 1    
    36   17   87 1    
    37   18   19 1    
    38   18   37 1    
    39   18   88 1    
    40   19   20 am   BACKBONE|DICT|INTERRES
    41   19   89 1    
    42   20   21 2    
    43   20   22 1    
    44   22   23 1    
    45   22   24 1    
    46   22   90 1    
    47   23   91 1    
    48   23   92 1    
    49   23   93 1    
    50   24   25 am   BACKBONE|DICT|INTERRES
    51   24   94 1    
    52   25   26 2    
    53   25   27 1    
    54   27   28 1    
    55   27   29 1    
    56   27   95 1    
    57   28   96 1    
    58   28   97 1    
    59   28   98 1    
    60   29   30 am   BACKBONE|DICT|INTERRES
    61   29   99 1    
    62   30   31 2    
    63   30   32 1    
    64   32   33 1    
    65   32   34 1    
    66   32  100 1    
    67   33  101 1    
    68   33  102 1    
    69   33  103 1    
    70   34   35 am   BACKBONE|DICT|INTERRES
    71   34  104 1    
    72   35   36 2    
    73   37   38 2    
    74   37   39 am   BACKBONE|DICT|INTERRES
    75   39   40 1    
    76   39  105 1    
    77   40   41 1    
    78   40   42 1    
    79   40  106 1    
    80   41  107 1    
    81   41  108 1    
    82   41  109 1    
    83   42   43 2    
    84   42   44 am   BACKBONE|DICT|INTERRES
    85   44   45 1    
    86   44  110 1    
    87   45   46 1    
    88   45   47 1    
    89   45  111 1    
    90   46  112 1    
    91   46  113 1    
    92   46  114 1    
    93   47   48 2    
    94   47   49 am   BACKBONE|DICT|INTERRES
    95   49   50 1    
    96   49  115 1    
    97   50   51 1    
    98   50   52 1    
    99   50  116 1    
   100   51  117 1    
   101   51  118 1    
   102   51  119 1    
   103   52   53 2    
   104   52   54 am   BACKBONE|DICT|INTERRES
   105   54   55 1    
   106   54  120 1    
   107   55   56 1    
   108   55   57 1    
   109   55  121 1    
   110   56  122 1    
   111   56  123 1    
   112   56  124 1    
   113   57   58 2    
   114   57   59 am   BACKBONE|DICT|INTERRES
   115   59   60 1    
   116   59  125 1    
   117   60   61 1    
   118   60   62 1    
   119   60  126 1    
   120   61  127 1    
   121   61  128 1    
   122   61  129 1    
   123   62   63 2    
   124   62   64 am   BACKBONE|DICT|INTERRES
   125   64   65 1    
   126   64  130 1    
   127   65   66 1    
   128   65   69 1    
   129   65  131 1    
   130   66   67 am   BACKBONE|DICT|INTERRES
   131   66   68 2    
   132   67  132 1    
   133   67  133 1    
   134   69   70 1    
   135   69  134 1    
   136   69  135 1    
   137   70   71 1    
   138   71  136 1    
   139   71  137 1    
@<TRIPOS>SUBSTRUCTURE
     1 UNK         1 GROUP             0       ****    0 ROOT    
