@<TRIPOS>MOLECULE
3R137
137   139    1
SMALL
USER_CHARGES


@<TRIPOS>ATOM
      1 CA         24.8485   -0.6759    4.0363 C.3       0 UNK        -0.2020 
      2 C          25.3667   -0.5899    2.6082 C.2       0 UNK         0.4855 
      3 O          24.9380    0.2839    1.8534 O.2       0 UNK        -0.5197 
      4 N          26.2910   -1.4836    2.2342 N.am      1 UNK        -0.4892 
      5 CA         26.8453   -1.5921    0.8804 C.3       1 UNK         0.0835 
      6 C6         28.2101   -2.3271    0.8970 C.3       12 UNK        -0.0855 
      7 S7         29.2513   -1.8961   -0.5393 S.3       12 UNK        -0.2931 
      8 C8         29.5041   -3.5377   -1.2949 C.3       12 UNK         0.0378 
      9 C9         30.3015   -3.4913   -2.5966 C.ar      12 UNK        -0.0802 
     10 C10        31.4556   -2.7059   -2.7084 C.ar      12 UNK        -0.0944 
     11 C11        32.1937   -2.6876   -3.8947 C.ar      12 UNK        -0.0787 
     12 C12        31.7873   -3.4811   -4.9706 C.ar      12 UNK        -0.0862 
     13 C13        30.6517   -4.2888   -4.8684 C.ar      12 UNK        -0.0733 
     14 C14        29.9071   -4.2812   -3.6834 C.ar      12 UNK        -0.0832 
     15 C15        30.2681   -5.2085   -6.0214 C.3       12 UNK         0.0240 
     16 S16        29.6906   -4.2971   -7.4875 S.3       12 UNK        -0.2522 
     17 C17        28.0372   -3.7650   -6.9383 C.3       12 UNK        -0.0967 
     18 CA         27.5478   -2.4849   -7.6580 C.3       5 UNK         0.0660 
     19 N          26.1524   -2.2162   -7.3419 N.am      5 UNK        -0.4015 
     20 C          25.1667   -2.0580   -8.2315 C.2       4 UNK         0.4946 
     21 O          25.2791   -2.3107   -9.4313 O.2       4 UNK        -0.5353 
     22 CA         23.8258   -1.5013   -7.7064 C.3       4 UNK         0.0277 
     23 CB         22.7748   -2.6206   -7.6289 C.3       4 UNK        -0.1981 
     24 N          23.9137   -0.8369   -6.3995 N.am      4 UNK        -0.4209 
     25 C          24.6772    0.2285   -6.1141 C.2       3 UNK         0.4942 
     26 O          25.3586    0.8266   -6.9478 O.2       3 UNK        -0.5208 
     27 CA         24.7736    0.6430   -4.6349 C.3       3 UNK         0.0250 
     28 CB         23.7319    1.7259   -4.3155 C.3       3 UNK        -0.1990 
     29 N          24.6509   -0.4602   -3.6678 N.am      3 UNK        -0.4232 
     30 C          25.3960   -1.5758   -3.6525 C.2       2 UNK         0.4993 
     31 O          26.2523   -1.8394   -4.4981 O.2       2 UNK        -0.5286 
     32 CA         25.1950   -2.5247   -2.4707 C.3       2 UNK         0.0209 
     33 CB         25.5798   -3.9784   -2.8152 C.3       2 UNK        -0.1931 
     34 N          26.0291   -2.0254   -1.3844 N.am      2 UNK        -0.4546 
     35 C          25.8361   -2.2572   -0.0831 C.2       1 UNK         0.5154 
     36 O          24.9282   -2.9695    0.3561 O.2       1 UNK        -0.5181 
     37 C          28.3680   -1.2359   -7.2838 C.2       5 UNK         0.5014 
     38 O          28.9523   -0.6034   -8.1640 O.2       5 UNK        -0.5248 
     39 N          28.3739   -0.8887   -5.9902 N.am      6 UNK        -0.4434 
     40 CA         29.2801    0.0726   -5.3603 C.3       6 UNK         0.0363 
     41 CB         29.0422    0.0554   -3.8430 C.3       6 UNK        -0.1936 
     42 C          29.2158    1.5131   -5.8927 C.2       6 UNK         0.5081 
     43 O          30.2140    2.2251   -5.7789 O.2       6 UNK        -0.5248 
     44 N          28.0710    1.9217   -6.4540 N.am      7 UNK        -0.4718 
     45 CA         27.8793    3.2382   -7.0626 C.3       7 UNK         0.0273 
     46 CB         26.6965    3.9544   -6.3881 C.3       7 UNK        -0.1935 
     47 C          27.6575    3.1204   -8.5757 C.2       7 UNK         0.5018 
     48 O          28.2688    3.8792   -9.3281 O.2       7 UNK        -0.5186 
     49 N          26.7827    2.1946   -8.9973 N.am      8 UNK        -0.4240 
     50 CA         26.3678    2.0384  -10.3941 C.3       8 UNK         0.0235 
     51 CB         25.0885    1.1933  -10.4670 C.3       8 UNK        -0.2000 
     52 C          27.4644    1.4635  -11.3062 C.2       8 UNK         0.4941 
     53 O          27.6519    1.9827  -12.4076 O.2       8 UNK        -0.5273 
     54 N          28.1709    0.4217  -10.8436 N.am      9 UNK        -0.4262 
     55 CA         29.3457   -0.1306  -11.5299 C.3       9 UNK         0.0264 
     56 CB         29.4368   -1.6484  -11.2940 C.3       9 UNK        -0.1955 
     57 C          30.6308    0.5809  -11.0735 C.2       9 UNK         0.5031 
     58 O          31.5240    0.7854  -11.8968 O.2       9 UNK        -0.5390 
     59 N          30.6596    0.9675   -9.7890 N.am      10 UNK        -0.4204 
     60 CA         31.7000    1.6778   -9.0412 C.3       10 UNK         0.0237 
     61 CB         32.2096    2.9353   -9.7734 C.3       10 UNK        -0.1985 
     62 C          32.8496    0.7542   -8.6135 C.2       10 UNK         0.4970 
     63 O          33.2894   -0.1017   -9.3841 O.2       10 UNK        -0.4914 
     64 N          33.3197    0.9586   -7.3787 N.am      11 UNK        -0.4285 
     65 CA         34.4578    0.2442   -6.7835 C.3       11 UNK         0.1007 
     66 C          35.8096    0.6243   -7.4466 C.2       11 UNK         0.5703 
     67 N          36.7490   -0.3090   -7.5198 N.am      11 UNK        -0.7361 
     68 O          36.0287    1.7636   -7.8557 O.2       11 UNK        -0.4986 
     69 C69        34.5202    0.4538   -5.2479 C.3       12 UNK        -0.0947 
     70 S70        32.9983   -0.1074   -4.4174 S.3       12 UNK        -0.2240 
     71 C71        33.4379   -1.8229   -4.0125 C.3       12 UNK         0.0194 
     72 H72        25.3239   -1.4814    4.5958 H         1 UNK         0.0906 
     73 H73        25.0389    0.2596    4.5618 H         1 UNK         0.0906 
     74 H74        23.7733   -0.8532    4.0347 H         1 UNK         0.0906 
     75 H75        26.5758   -2.2025    2.8845 H         1 UNK         0.3140 
     76 H76        27.0126   -0.5722    0.5249 H         1 UNK         0.1085 
     77 H77        28.7779   -2.0358    1.7824 H         1 UNK         0.0836 
     78 H78        28.0790   -3.4085    0.9752 H         1 UNK         0.0836 
     79 H79        28.5278   -3.9940   -1.4645 H         1 UNK         0.0731 
     80 H80        30.0306   -4.1789   -0.5867 H         1 UNK         0.0731 
     81 H81        31.7792   -2.1001   -1.8732 H         1 UNK         0.1312 
     82 H82        32.3608   -3.4807   -5.8876 H         1 UNK         0.1406 
     83 H83        29.0320   -4.9111   -3.5992 H         1 UNK         0.1631 
     84 H84        29.5017   -5.9227   -5.7162 H         1 UNK         0.0717 
     85 H85        31.1393   -5.8018   -6.3027 H         1 UNK         0.0717 
     86 H86        27.3488   -4.5861   -7.1448 H         1 UNK         0.0934 
     87 H87        28.0246   -3.6353   -5.8548 H         1 UNK         0.0934 
     88 H88        27.6625   -2.6377   -8.7333 H         1 UNK         0.0739 
     89 H89        25.9636   -2.0008   -6.3671 H         1 UNK         0.3093 
     90 H90        23.4843   -0.7569   -8.4285 H         1 UNK         0.0818 
     91 H91        21.7961   -2.2293   -7.3505 H         1 UNK         0.0819 
     92 H92        22.6594   -3.1156   -8.5943 H         1 UNK         0.0819 
     93 H93        23.0521   -3.3854   -6.9022 H         1 UNK         0.0819 
     94 H94        23.3954   -1.2600   -5.6434 H         1 UNK         0.3041 
     95 H95        25.7646    1.0792   -4.4949 H         1 UNK         0.0784 
     96 H96        23.8141    2.5652   -5.0080 H         1 UNK         0.0793 
     97 H97        22.7136    1.3419   -4.3887 H         1 UNK         0.0793 
     98 H98        23.8696    2.1258   -3.3107 H         1 UNK         0.0793 
     99 H99        23.9887   -0.3187   -2.9178 H         1 UNK         0.3024 
    100 H100       24.1433   -2.4985   -2.1758 H         1 UNK         0.1171 
    101 H101       25.3985   -4.6483   -1.9747 H         1 UNK         0.0786 
    102 H102       24.9920   -4.3475   -3.6565 H         1 UNK         0.0786 
    103 H103       26.6314   -4.0652   -3.0899 H         1 UNK         0.0786 
    104 H104       26.8133   -1.4514   -1.6667 H         1 UNK         0.2977 
    105 H105       27.7648   -1.3980   -5.3523 H         1 UNK         0.3127 
    106 H106       30.2915   -0.2907   -5.5496 H         1 UNK         0.0770 
    107 H107       28.0458    0.4147   -3.5852 H         1 UNK         0.0814 
    108 H108       29.7656    0.6881   -3.3269 H         1 UNK         0.0814 
    109 H109       29.1511   -0.9508   -3.4404 H         1 UNK         0.0814 
    110 H110       27.2991    1.2693   -6.5313 H         1 UNK         0.2983 
    111 H111       28.7651    3.8608   -6.9182 H         1 UNK         0.0947 
    112 H112       26.5587    4.9527   -6.8053 H         1 UNK         0.0806 
    113 H113       26.8649    4.0712   -5.3175 H         1 UNK         0.0806 
    114 H114       25.7586    3.4155   -6.5213 H         1 UNK         0.0806 
    115 H115       26.2860    1.6393   -8.3034 H         1 UNK         0.3000 
    116 H116       26.1224    3.0333  -10.7728 H         1 UNK         0.0850 
    117 H117       24.7195    1.1315  -11.4916 H         1 UNK         0.0810 
    118 H118       24.2916    1.6205   -9.8580 H         1 UNK         0.0810 
    119 H119       25.2648    0.1765  -10.1243 H         1 UNK         0.0810 
    120 H120       27.9833    0.0704   -9.9121 H         1 UNK         0.3040 
    121 H121       29.2427    0.0251  -12.6061 H         1 UNK         0.0766 
    122 H122       29.6582   -1.8956  -10.2563 H         1 UNK         0.0812 
    123 H123       30.2328   -2.0824  -11.9003 H         1 UNK         0.0812 
    124 H124       28.5091   -2.1505  -11.5688 H         1 UNK         0.0812 
    125 H125       29.9109    0.6007   -9.2046 H         1 UNK         0.3205 
    126 H126       31.1984    2.0219   -8.1383 H         1 UNK         0.0754 
    127 H127       32.8501    3.5292   -9.1203 H         1 UNK         0.0769 
    128 H128       31.3830    3.5736  -10.0866 H         1 UNK         0.0769 
    129 H129       32.7985    2.6851  -10.6561 H         1 UNK         0.0769 
    130 H130       32.9056    1.6787   -6.8048 H         1 UNK         0.2981 
    131 H131       34.2943   -0.8199   -6.9669 H         1 UNK         0.0541 
    132 H132       36.5862   -1.2432   -7.1777 H         1 UNK         0.3459 
    133 H133       37.6384   -0.0760   -7.9331 H         1 UNK         0.3459 
    134 H134       34.6647    1.5098   -5.0126 H         1 UNK         0.0612 
    135 H135       35.3729   -0.0730   -4.8151 H         1 UNK         0.0612 
    136 H136       34.0023   -1.8408   -3.0790 H         1 UNK         0.0624 
    137 H137       34.0982   -2.2267   -4.7815 H         1 UNK         0.0624 
@<TRIPOS>BOND
     1    1    2 1    
     2    1   72 1    
     3    1   73 1    
     4    1   74 1    
     5    2    3 2    
     6    2    4 am   BACKBONE|DICT|INTERRES
     7    4    5 1    
     8    4   75 1    
     9    5    6 1    
    10    5   35 1    
    11    5   76 1    
    12    6    7 1    
    13    6   77 1    
    14    6   78 1    
    15    7    8 1    
    16    8    9 1    
    17    8   79 1    
    18    8   80 1    
    19    9   10 ar   
    20    9   14 ar   
    21   10   11 ar   
    22   10   81 1    
    23   11   12 ar   
    24   11   71 1    
    25   12   13 ar   
    26   12   82 1    
    27   13   14 ar   
    28   13   15 1    
    29   14   83 1    
    30   15   16 1    
    31   15   84 1    
    32   15   85 1    
    33   16   17 1    
    34   17   18 1    
    35   17   86 1    
    36   17   87 1    
    37   18   19 1    
    38   18   37 1    
    39   18   88 1    
    40   19   20 am   BACKBONE|DICT|INTERRES
    41   19   89 1    
    42   20   21 2    
    43   20   22 1    
    44   22   23 1    
    45   22   24 1    
    46   22   90 1    
    47   23   91 1    
    48   23   92 1    
    49   23   93 1    
    50   24   25 am   BACKBONE|DICT|INTERRES
    51   24   94 1    
    52   25   26 2    
    53   25   27 1    
    54   27   28 1    
    55   27   29 1    
    56   27   95 1    
    57   28   96 1    
    58   28   97 1    
    59   28   98 1    
    60   29   30 am   BACKBONE|DICT|INTERRES
    61   29   99 1    
    62   30   31 2    
    63   30   32 1    
    64   32   33 1    
    65   32   34 1    
    66   32  100 1    
    67   33  101 1    
    68   33  102 1    
    69   33  103 1    
    70   34   35 am   BACKBONE|DICT|INTERRES
    71   34  104 1    
    72   35   36 2    
    73   37   38 2    
    74   37   39 am   BACKBONE|DICT|INTERRES
    75   39   40 1    
    76   39  105 1    
    77   40   41 1    
    78   40   42 1    
    79   40  106 1    
    80   41  107 1    
    81   41  108 1    
    82   41  109 1    
    83   42   43 2    
    84   42   44 am   BACKBONE|DICT|INTERRES
    85   44   45 1    
    86   44  110 1    
    87   45   46 1    
    88   45   47 1    
    89   45  111 1    
    90   46  112 1    
    91   46  113 1    
    92   46  114 1    
    93   47   48 2    
    94   47   49 am   BACKBONE|DICT|INTERRES
    95   49   50 1    
    96   49  115 1    
    97   50   51 1    
    98   50   52 1    
    99   50  116 1    
   100   51  117 1    
   101   51  118 1    
   102   51  119 1    
   103   52   53 2    
   104   52   54 am   BACKBONE|DICT|INTERRES
   105   54   55 1    
   106   54  120 1    
   107   55   56 1    
   108   55   57 1    
   109   55  121 1    
   110   56  122 1    
   111   56  123 1    
   112   56  124 1    
   113   57   58 2    
   114   57   59 am   BACKBONE|DICT|INTERRES
   115   59   60 1    
   116   59  125 1    
   117   60   61 1    
   118   60   62 1    
   119   60  126 1    
   120   61  127 1    
   121   61  128 1    
   122   61  129 1    
   123   62   63 2    
   124   62   64 am   BACKBONE|DICT|INTERRES
   125   64   65 1    
   126   64  130 1    
   127   65   66 1    
   128   65   69 1    
   129   65  131 1    
   130   66   67 am   BACKBONE|DICT|INTERRES
   131   66   68 2    
   132   67  132 1    
   133   67  133 1    
   134   69   70 1    
   135   69  134 1    
   136   69  135 1    
   137   70   71 1    
   138   71  136 1    
   139   71  137 1    
@<TRIPOS>SUBSTRUCTURE
     1 UNK         1 GROUP             0       ****    0 ROOT    
