@<TRIPOS>MOLECULE
3R137
137   139    1
SMALL
USER_CHARGES


@<TRIPOS>ATOM
      1 CA         25.3802   -6.6386   -3.8029 C.3       0 UNK        -0.2020 
      2 C          25.7265   -5.2039   -3.4388 C.2       0 UNK         0.4855 
      3 O          25.4269   -4.2943   -4.2118 O.2       0 UNK        -0.5197 
      4 N          26.3338   -4.9978   -2.2609 N.am      1 UNK        -0.4892 
      5 CA         26.8334   -3.7225   -1.7184 C.3       1 UNK         0.0835 
      6 C6         28.1644   -3.2608   -2.3592 C.3       12 UNK        -0.0855 
      7 S7         29.5395   -4.4502   -2.2275 S.3       12 UNK        -0.2931 
      8 C8         30.5933   -3.9519   -3.6442 C.3       12 UNK         0.0378 
      9 C9         31.0122   -2.4767   -3.6948 C.ar      12 UNK        -0.0802 
     10 C10        31.4353   -1.9386   -4.9160 C.ar      12 UNK        -0.0944 
     11 C11        31.8132   -0.5951   -5.0160 C.ar      12 UNK        -0.0787 
     12 C12        31.7302    0.2288   -3.8916 C.ar      12 UNK        -0.0862 
     13 C13        31.2876   -0.2846   -2.6710 C.ar      12 UNK        -0.0733 
     14 C14        30.9831   -1.6442   -2.5680 C.ar      12 UNK        -0.0832 
     15 C15        31.0932    0.6339   -1.4719 C.3       12 UNK         0.0240 
     16 S16        29.7765    1.8731   -1.7465 S.3       12 UNK        -0.2522 
     17 C17        28.3628    0.8719   -2.3387 C.3       12 UNK        -0.0967 
     18 CA         28.1672    0.9868   -3.8744 C.3       5 UNK         0.0660 
     19 N          27.5406   -0.2025   -4.4699 N.am      5 UNK        -0.4015 
     20 C          27.6474   -0.4935   -5.7776 C.2       4 UNK         0.4946 
     21 O          28.3207    0.1684   -6.5667 O.2       4 UNK        -0.5353 
     22 CA         26.8456   -1.6716   -6.3484 C.3       4 UNK         0.0277 
     23 CB         27.6921   -2.9513   -6.4505 C.3       4 UNK        -0.1981 
     24 N          25.5773   -1.9427   -5.6719 N.am      4 UNK        -0.4209 
     25 C          24.5143   -1.1278   -5.7254 C.2       3 UNK         0.4942 
     26 O          24.5509    0.0064   -6.2008 O.2       3 UNK        -0.5208 
     27 CA         23.1922   -1.6662   -5.1670 C.3       3 UNK         0.0250 
     28 CB         22.6626   -2.8250   -6.0291 C.3       3 UNK        -0.1990 
     29 N          23.3650   -2.1183   -3.7902 N.am      3 UNK        -0.4232 
     30 C          23.0318   -1.4008   -2.7090 C.2       2 UNK         0.4993 
     31 O          22.4612   -0.3104   -2.7563 O.2       2 UNK        -0.5286 
     32 CA         23.4027   -1.9860   -1.3325 C.3       2 UNK         0.0209 
     33 CB         22.1905   -2.6955   -0.7071 C.3       2 UNK        -0.1931 
     34 N          24.5431   -2.9096   -1.3511 N.am      2 UNK        -0.4546 
     35 C          25.7832   -2.5868   -1.7447 C.2       1 UNK         0.5154 
     36 O          26.0919   -1.4663   -2.1617 O.2       1 UNK        -0.5181 
     37 C          27.4170    2.2770   -4.2651 C.2       5 UNK         0.5014 
     38 O          28.0570    3.3041   -4.4937 O.2       5 UNK        -0.5248 
     39 N          26.0808    2.2008   -4.3636 N.am      6 UNK        -0.4434 
     40 CA         25.2213    3.3088   -4.7862 C.3       6 UNK         0.0363 
     41 CB         23.7584    2.9951   -4.4315 C.3       6 UNK        -0.1936 
     42 C          25.3719    3.6186   -6.2847 C.2       6 UNK         0.5081 
     43 O          25.4593    4.7885   -6.6581 O.2       6 UNK        -0.5248 
     44 N          25.4167    2.5658   -7.1117 N.am      7 UNK        -0.4718 
     45 CA         25.6127    2.6530   -8.5606 C.3       7 UNK         0.0273 
     46 CB         25.1556    1.3317   -9.2011 C.3       7 UNK        -0.1935 
     47 C          27.0640    2.9611   -8.9713 C.2       7 UNK         0.5018 
     48 O          27.2742    3.4226  -10.0936 O.2       7 UNK        -0.5186 
     49 N          28.0256    2.6686   -8.0811 N.am      8 UNK        -0.4240 
     50 CA         29.4778    2.6544   -8.3033 C.3       8 UNK         0.0235 
     51 CB         30.0208    4.0727   -8.5779 C.3       8 UNK        -0.2000 
     52 C          29.8646    1.6253   -9.3847 C.2       8 UNK         0.4941 
     53 O          30.6006    1.9465  -10.3201 O.2       8 UNK        -0.5273 
     54 N          29.3104    0.4133   -9.2557 N.am      9 UNK        -0.4262 
     55 CA         29.4631   -0.6792  -10.2119 C.3       9 UNK         0.0264 
     56 CB         28.2099   -1.5698  -10.1717 C.3       9 UNK        -0.1955 
     57 C          30.7284   -1.4821   -9.8872 C.2       9 UNK         0.5031 
     58 O          30.7878   -2.1086   -8.8276 O.2       9 UNK        -0.5390 
     59 N          31.6980   -1.4567  -10.8115 N.am      10 UNK        -0.4204 
     60 CA         33.0276   -2.0690  -10.7122 C.3       10 UNK         0.0237 
     61 CB         32.9338   -3.6113  -10.6148 C.3       10 UNK        -0.1985 
     62 C          33.8757   -1.3965   -9.6126 C.2       10 UNK         0.4970 
     63 O          33.9482   -0.1668   -9.6006 O.2       10 UNK        -0.4914 
     64 N          34.5165   -2.2041   -8.7559 N.am      11 UNK        -0.4285 
     65 CA         35.4661   -1.8250   -7.6948 C.3       11 UNK         0.1007 
     66 C          36.6764   -0.9624   -8.1732 C.2       11 UNK         0.5703 
     67 N          37.3196   -0.2071   -7.2923 N.am      11 UNK        -0.7361 
     68 O          37.0886   -1.0304   -9.3303 O.2       11 UNK        -0.4986 
     69 C69        34.7715   -1.3770   -6.3711 C.3       12 UNK        -0.0947 
     70 S70        34.0728    0.3122   -6.3472 S.3       12 UNK        -0.2240 
     71 C71        32.2836   -0.0182   -6.3426 C.3       12 UNK         0.0194 
     72 H72        25.6903   -7.3433   -3.0318 H         1 UNK         0.0906 
     73 H73        24.3046   -6.7395   -3.9443 H         1 UNK         0.0906 
     74 H74        25.8736   -6.9153   -4.7342 H         1 UNK         0.0906 
     75 H75        26.5333   -5.8015   -1.6808 H         1 UNK         0.3140 
     76 H76        27.0322   -3.9033   -0.6606 H         1 UNK         0.1085 
     77 H77        28.4918   -2.3556   -1.8538 H         1 UNK         0.0836 
     78 H78        28.0155   -2.9894   -3.4014 H         1 UNK         0.0836 
     79 H79        31.4953   -4.5648   -3.6326 H         1 UNK         0.0731 
     80 H80        30.0619   -4.2071   -4.5623 H         1 UNK         0.0731 
     81 H81        31.4716   -2.5668   -5.7963 H         1 UNK         0.1312 
     82 H82        31.9843    1.2769   -3.9731 H         1 UNK         0.1406 
     83 H83        30.6857   -2.0398   -1.6080 H         1 UNK         0.1631 
     84 H84        32.0295    1.1518   -1.2594 H         1 UNK         0.0717 
     85 H85        30.8506    0.0592   -0.5767 H         1 UNK         0.0717 
     86 H86        28.5435   -0.1618   -2.0557 H         1 UNK         0.0934 
     87 H87        27.4602    1.1622   -1.7971 H         1 UNK         0.0934 
     88 H88        29.1585    1.0649   -4.3241 H         1 UNK         0.0739 
     89 H89        26.9593   -0.7709   -3.8617 H         1 UNK         0.3093 
     90 H90        26.5933   -1.3837   -7.3710 H         1 UNK         0.0818 
     91 H91        27.8144   -3.4492   -5.4927 H         1 UNK         0.0819 
     92 H92        27.2306   -3.6680   -7.1297 H         1 UNK         0.0819 
     93 H93        28.6896   -2.7368   -6.8387 H         1 UNK         0.0819 
     94 H94        25.4862   -2.8502   -5.2145 H         1 UNK         0.3041 
     95 H95        22.4592   -0.8576   -5.2124 H         1 UNK         0.0784 
     96 H96        22.5474   -2.5163   -7.0690 H         1 UNK         0.0793 
     97 H97        23.3315   -3.6866   -6.0156 H         1 UNK         0.0793 
     98 H98        21.6851   -3.1585   -5.6805 H         1 UNK         0.0793 
     99 H99        23.8843   -2.9793   -3.6603 H         1 UNK         0.3024 
    100 H100       23.6753   -1.1421   -0.6945 H         1 UNK         0.1171 
    101 H101       21.3306   -2.0259   -0.6538 H         1 UNK         0.0786 
    102 H102       22.4036   -3.0259    0.3098 H         1 UNK         0.0786 
    103 H103       21.8888   -3.5673   -1.2891 H         1 UNK         0.0786 
    104 H104       24.3680   -3.8594   -1.0549 H         1 UNK         0.2977 
    105 H105       25.6292    1.3116   -4.2043 H         1 UNK         0.3127 
    106 H106       25.5191    4.2010   -4.2307 H         1 UNK         0.0770 
    107 H107       23.3957    2.1030   -4.9433 H         1 UNK         0.0814 
    108 H108       23.1044    3.8207   -4.7150 H         1 UNK         0.0814 
    109 H109       23.6344    2.8372   -3.3600 H         1 UNK         0.0814 
    110 H110       25.2553    1.6360   -6.7276 H         1 UNK         0.2983 
    111 H111       24.9843    3.4585   -8.9471 H         1 UNK         0.0947 
    112 H112       25.2530    1.3672  -10.2871 H         1 UNK         0.0806 
    113 H113       24.1098    1.1221   -8.9754 H         1 UNK         0.0806 
    114 H114       25.7489    0.4879   -8.8471 H         1 UNK         0.0806 
    115 H115       27.7292    2.2453   -7.2109 H         1 UNK         0.3000 
    116 H116       29.9244    2.3067   -7.3708 H         1 UNK         0.0850 
    117 H117       29.7336    4.7656   -7.7870 H         1 UNK         0.0810 
    118 H118       29.6572    4.4732   -9.5245 H         1 UNK         0.0810 
    119 H119       31.1103    4.0674   -8.6260 H         1 UNK         0.0810 
    120 H120       28.8149    0.2087   -8.3904 H         1 UNK         0.3040 
    121 H121       29.5422   -0.2652  -11.2197 H         1 UNK         0.0766 
    122 H122       27.3094   -0.9998  -10.4004 H         1 UNK         0.0812 
    123 H123       28.0751   -2.0347   -9.1957 H         1 UNK         0.0812 
    124 H124       28.2818   -2.3734  -10.9056 H         1 UNK         0.0812 
    125 H125       31.5581   -0.8674  -11.6209 H         1 UNK         0.3205 
    126 H126       33.5321   -1.8383  -11.6517 H         1 UNK         0.0754 
    127 H127       33.9172   -4.0746  -10.7049 H         1 UNK         0.0769 
    128 H128       32.3217   -4.0154  -11.4213 H         1 UNK         0.0769 
    129 H129       32.4936   -3.9426   -9.6735 H         1 UNK         0.0769 
    130 H130       34.3945   -3.1977   -8.8814 H         1 UNK         0.2981 
    131 H131       35.9424   -2.7756   -7.4529 H         1 UNK         0.0541 
    132 H132       38.1181    0.3290   -7.5935 H         1 UNK         0.3459 
    133 H133       36.9896   -0.1314   -6.3430 H         1 UNK         0.3459 
    134 H134       35.4822   -1.4415   -5.5461 H         1 UNK         0.0612 
    135 H135       33.9909   -2.0946   -6.1190 H         1 UNK         0.0612 
    136 H136       32.0463   -0.6884   -7.1659 H         1 UNK         0.0624 
    137 H137       31.7510    0.9121   -6.5409 H         1 UNK         0.0624 
@<TRIPOS>BOND
     1    1    2 1    
     2    1   72 1    
     3    1   73 1    
     4    1   74 1    
     5    2    3 2    
     6    2    4 am   BACKBONE|DICT|INTERRES
     7    4    5 1    
     8    4   75 1    
     9    5    6 1    
    10    5   35 1    
    11    5   76 1    
    12    6    7 1    
    13    6   77 1    
    14    6   78 1    
    15    7    8 1    
    16    8    9 1    
    17    8   79 1    
    18    8   80 1    
    19    9   10 ar   
    20    9   14 ar   
    21   10   11 ar   
    22   10   81 1    
    23   11   12 ar   
    24   11   71 1    
    25   12   13 ar   
    26   12   82 1    
    27   13   14 ar   
    28   13   15 1    
    29   14   83 1    
    30   15   16 1    
    31   15   84 1    
    32   15   85 1    
    33   16   17 1    
    34   17   18 1    
    35   17   86 1    
    36   17   87 1    
    37   18   19 1    
    38   18   37 1    
    39   18   88 1    
    40   19   20 am   BACKBONE|DICT|INTERRES
    41   19   89 1    
    42   20   21 2    
    43   20   22 1    
    44   22   23 1    
    45   22   24 1    
    46   22   90 1    
    47   23   91 1    
    48   23   92 1    
    49   23   93 1    
    50   24   25 am   BACKBONE|DICT|INTERRES
    51   24   94 1    
    52   25   26 2    
    53   25   27 1    
    54   27   28 1    
    55   27   29 1    
    56   27   95 1    
    57   28   96 1    
    58   28   97 1    
    59   28   98 1    
    60   29   30 am   BACKBONE|DICT|INTERRES
    61   29   99 1    
    62   30   31 2    
    63   30   32 1    
    64   32   33 1    
    65   32   34 1    
    66   32  100 1    
    67   33  101 1    
    68   33  102 1    
    69   33  103 1    
    70   34   35 am   BACKBONE|DICT|INTERRES
    71   34  104 1    
    72   35   36 2    
    73   37   38 2    
    74   37   39 am   BACKBONE|DICT|INTERRES
    75   39   40 1    
    76   39  105 1    
    77   40   41 1    
    78   40   42 1    
    79   40  106 1    
    80   41  107 1    
    81   41  108 1    
    82   41  109 1    
    83   42   43 2    
    84   42   44 am   BACKBONE|DICT|INTERRES
    85   44   45 1    
    86   44  110 1    
    87   45   46 1    
    88   45   47 1    
    89   45  111 1    
    90   46  112 1    
    91   46  113 1    
    92   46  114 1    
    93   47   48 2    
    94   47   49 am   BACKBONE|DICT|INTERRES
    95   49   50 1    
    96   49  115 1    
    97   50   51 1    
    98   50   52 1    
    99   50  116 1    
   100   51  117 1    
   101   51  118 1    
   102   51  119 1    
   103   52   53 2    
   104   52   54 am   BACKBONE|DICT|INTERRES
   105   54   55 1    
   106   54  120 1    
   107   55   56 1    
   108   55   57 1    
   109   55  121 1    
   110   56  122 1    
   111   56  123 1    
   112   56  124 1    
   113   57   58 2    
   114   57   59 am   BACKBONE|DICT|INTERRES
   115   59   60 1    
   116   59  125 1    
   117   60   61 1    
   118   60   62 1    
   119   60  126 1    
   120   61  127 1    
   121   61  128 1    
   122   61  129 1    
   123   62   63 2    
   124   62   64 am   BACKBONE|DICT|INTERRES
   125   64   65 1    
   126   64  130 1    
   127   65   66 1    
   128   65   69 1    
   129   65  131 1    
   130   66   67 am   BACKBONE|DICT|INTERRES
   131   66   68 2    
   132   67  132 1    
   133   67  133 1    
   134   69   70 1    
   135   69  134 1    
   136   69  135 1    
   137   70   71 1    
   138   71  136 1    
   139   71  137 1    
@<TRIPOS>SUBSTRUCTURE
     1 UNK         1 GROUP             0       ****    0 ROOT    
