@<TRIPOS>MOLECULE
3R137
137   139    1
SMALL
USER_CHARGES


@<TRIPOS>ATOM
      1 CA         31.2377   -0.1558    0.2392 C.3       0 UNK        -0.2020 
      2 C          30.0429   -0.5689   -0.6057 C.2       0 UNK         0.4855 
      3 O          29.7258    0.1026   -1.5868 O.2       0 UNK        -0.5197 
      4 N          29.3701   -1.6641   -0.2308 N.am      1 UNK        -0.4892 
      5 CA         28.2333   -2.2672   -0.9405 C.3       1 UNK         0.0835 
      6 C6         28.0439   -3.7621   -0.5597 C.3       12 UNK        -0.0855 
      7 S7         29.5640   -4.7673   -0.6686 S.3       12 UNK        -0.2931 
      8 C8         29.3831   -5.5811   -2.2940 C.3       12 UNK         0.0378 
      9 C9         29.8461   -4.7570   -3.4974 C.ar      12 UNK        -0.0802 
     10 C10        30.8078   -3.7427   -3.3857 C.ar      12 UNK        -0.0944 
     11 C11        31.2801   -3.0769   -4.5199 C.ar      12 UNK        -0.0787 
     12 C12        30.7712   -3.4214   -5.7745 C.ar      12 UNK        -0.0862 
     13 C13        29.8024   -4.4203   -5.9110 C.ar      12 UNK        -0.0733 
     14 C14        29.3541   -5.0891   -4.7651 C.ar      12 UNK        -0.0832 
     15 C15        29.3291   -4.7931   -7.3176 C.3       12 UNK         0.0240 
     16 S16        27.6403   -5.4846   -7.4549 S.3       12 UNK        -0.2522 
     17 C17        26.5739   -4.2089   -6.7046 C.3       12 UNK        -0.0967 
     18 CA         26.2596   -3.0103   -7.6424 C.3       5 UNK         0.0660 
     19 N          24.9274   -2.4554   -7.3789 N.am      5 UNK        -0.4015 
     20 C          24.3574   -1.4339   -8.0368 C.2       4 UNK         0.4946 
     21 O          24.8459   -0.8926   -9.0288 O.2       4 UNK        -0.5353 
     22 CA         23.0391   -0.8857   -7.4561 C.3       4 UNK         0.0277 
     23 CB         21.8366   -1.5960   -8.0978 C.3       4 UNK        -0.1981 
     24 N          22.9323   -0.9661   -5.9914 N.am      4 UNK        -0.4209 
     25 C          23.8164   -0.4647   -5.1159 C.2       3 UNK         0.4942 
     26 O          24.8568    0.1106   -5.4476 O.2       3 UNK        -0.5208 
     27 CA         23.5127   -0.6804   -3.6272 C.3       3 UNK         0.0250 
     28 CB         23.3576   -2.1757   -3.2828 C.3       3 UNK        -0.1990 
     29 N          24.6100   -0.1206   -2.8438 N.am      3 UNK        -0.4232 
     30 C          24.5300    0.3629   -1.6010 C.2       2 UNK         0.4993 
     31 O          23.4800    0.4301   -0.9578 O.2       2 UNK        -0.5286 
     32 CA         25.8646    0.8209   -0.9758 C.3       2 UNK         0.0209 
     33 CB         25.7216    1.2370    0.5038 C.3       2 UNK        -0.1931 
     34 N          26.9409   -0.1737   -1.1208 N.am      2 UNK        -0.4546 
     35 C          26.9300   -1.4567   -0.7250 C.2       1 UNK         0.5154 
     36 O          25.9605   -1.9930   -0.1845 O.2       1 UNK        -0.5181 
     37 C          27.3451   -1.9227   -7.5259 C.2       5 UNK         0.5014 
     38 O          28.0952   -1.6955   -8.4750 O.2       5 UNK        -0.5248 
     39 N          27.3773   -1.2495   -6.3683 N.am      6 UNK        -0.4434 
     40 CA         28.3260   -0.1852   -6.0532 C.3       6 UNK         0.0363 
     41 CB         28.2666    0.1331   -4.5530 C.3       6 UNK        -0.1936 
     42 C          28.0958    1.0787   -6.8894 C.2       6 UNK         0.5081 
     43 O          29.0673    1.7165   -7.2881 O.2       6 UNK        -0.5248 
     44 N          26.8272    1.4000   -7.1789 N.am      7 UNK        -0.4718 
     45 CA         26.4410    2.5049   -8.0610 C.3       7 UNK         0.0273 
     46 CB         24.9141    2.6718   -8.0466 C.3       7 UNK        -0.1935 
     47 C          26.9583    2.3283   -9.5005 C.2       7 UNK         0.5018 
     48 O          27.3855    3.3093  -10.1102 O.2       7 UNK        -0.5186 
     49 N          26.9337    1.0862  -10.0042 N.am      8 UNK        -0.4240 
     50 CA         27.4959    0.7137  -11.3015 C.3       8 UNK         0.0235 
     51 CB         26.8857   -0.6204  -11.7624 C.3       8 UNK        -0.2000 
     52 C          29.0315    0.6316  -11.2730 C.2       8 UNK         0.4941 
     53 O          29.6804    1.1734  -12.1687 O.2       8 UNK        -0.5273 
     54 N          29.5843   -0.0616  -10.2675 N.am      9 UNK        -0.4262 
     55 CA         31.0154   -0.3586  -10.1567 C.3       9 UNK         0.0264 
     56 CB         31.2069   -1.5357   -9.1889 C.3       9 UNK        -0.1955 
     57 C          31.8866    0.8233   -9.7028 C.2       9 UNK         0.5031 
     58 O          33.0924    0.7935   -9.9507 O.2       9 UNK        -0.5390 
     59 N          31.3024    1.7930   -8.9854 N.am      10 UNK        -0.4204 
     60 CA         31.9221    2.9510   -8.3202 C.3       10 UNK         0.0237 
     61 CB         32.7007    3.8406   -9.3100 C.3       10 UNK        -0.1985 
     62 C          32.7747    2.5986   -7.0838 C.2       10 UNK         0.4970 
     63 O          32.8627    3.4239   -6.1740 O.2       10 UNK        -0.4914 
     64 N          33.3682    1.3977   -7.0609 N.am      11 UNK        -0.4285 
     65 CA         34.1686    0.8185   -5.9664 C.3       11 UNK         0.1007 
     66 C          35.5368    1.5249   -5.7173 C.2       11 UNK         0.5703 
     67 N          36.0389    2.3386   -6.6391 N.am      11 UNK        -0.7361 
     68 O          36.1756    1.3079   -4.6900 O.2       11 UNK        -0.4986 
     69 C69        33.3568    0.5989   -4.6541 C.3       12 UNK        -0.0947 
     70 S70        31.8354   -0.3788   -4.8989 S.3       12 UNK        -0.2240 
     71 C71        32.3883   -2.0367   -4.3989 C.3       12 UNK         0.0194 
     72 H72        31.0759    0.8376    0.6566 H         1 UNK         0.0906 
     73 H73        32.1362   -0.1247   -0.3766 H         1 UNK         0.0906 
     74 H74        31.4143   -0.8471    1.0629 H         1 UNK         0.0906 
     75 H75        29.6710   -2.1690    0.5910 H         1 UNK         0.3140 
     76 H76        28.4518   -2.2339   -2.0101 H         1 UNK         0.1085 
     77 H77        27.6896   -3.8468    0.4697 H         1 UNK         0.0836 
     78 H78        27.2665   -4.2147   -1.1780 H         1 UNK         0.0836 
     79 H79        29.9752   -6.4969   -2.2748 H         1 UNK         0.0731 
     80 H80        28.3465   -5.8951   -2.4250 H         1 UNK         0.0731 
     81 H81        31.2228   -3.4903   -2.4204 H         1 UNK         0.1312 
     82 H82        31.1548   -2.9223   -6.6516 H         1 UNK         0.1406 
     83 H83        28.6366   -5.8926   -4.8605 H         1 UNK         0.1631 
     84 H84        29.4025   -3.9308   -7.9793 H         1 UNK         0.0717 
     85 H85        30.0246   -5.5316   -7.7181 H         1 UNK         0.0717 
     86 H86        25.6474   -4.7290   -6.4553 H         1 UNK         0.0934 
     87 H87        26.9821   -3.8942   -5.7426 H         1 UNK         0.0934 
     88 H88        26.2489   -3.3599   -8.6771 H         1 UNK         0.0739 
     89 H89        24.4293   -2.8355   -6.5885 H         1 UNK         0.3093 
     90 H90        22.9845    0.1713   -7.7202 H         1 UNK         0.0818 
     91 H91        20.8948   -1.1423   -7.7883 H         1 UNK         0.0819 
     92 H92        21.8809   -1.5313   -9.1861 H         1 UNK         0.0819 
     93 H93        21.8032   -2.6542   -7.8356 H         1 UNK         0.0819 
     94 H94        22.1048   -1.4187   -5.6299 H         1 UNK         0.3041 
     95 H95        22.5883   -0.1477   -3.3944 H         1 UNK         0.0784 
     96 H96        22.5071   -2.6230   -3.7980 H         1 UNK         0.0793 
     97 H97        24.2467   -2.7463   -3.5543 H         1 UNK         0.0793 
     98 H98        23.1900   -2.3182   -2.2148 H         1 UNK         0.0793 
     99 H99        25.4852   -0.0573   -3.3451 H         1 UNK         0.3024 
    100 H100       26.1758    1.7041   -1.5366 H         1 UNK         0.1171 
    101 H101       26.6685    1.5951    0.9079 H         1 UNK         0.0786 
    102 H102       24.9967    2.0444    0.6154 H         1 UNK         0.0786 
    103 H103       25.3838    0.4078    1.1264 H         1 UNK         0.0786 
    104 H104       27.8222    0.1675   -1.5000 H         1 UNK         0.2977 
    105 H105       26.6558   -1.4245   -5.6851 H         1 UNK         0.3127 
    106 H106       29.3239   -0.5573   -6.2888 H         1 UNK         0.0770 
    107 H107       27.2905    0.5126   -4.2533 H         1 UNK         0.0814 
    108 H108       29.0043    0.8927   -4.2902 H         1 UNK         0.0814 
    109 H109       28.4937   -0.7497   -3.9562 H         1 UNK         0.0814 
    110 H110       26.0815    0.8519   -6.7582 H         1 UNK         0.2983 
    111 H111       26.8886    3.4160   -7.6579 H         1 UNK         0.0947 
    112 H112       24.6174    3.5651   -8.5975 H         1 UNK         0.0806 
    113 H113       24.5313    2.7725   -7.0307 H         1 UNK         0.0806 
    114 H114       24.4143    1.8240   -8.5139 H         1 UNK         0.0806 
    115 H115       26.5144    0.3435   -9.4538 H         1 UNK         0.3000 
    116 H116       27.2169    1.4783  -12.0300 H         1 UNK         0.0850 
    117 H117       25.8027   -0.5447  -11.8629 H         1 UNK         0.0810 
    118 H118       27.0966   -1.4279  -11.0600 H         1 UNK         0.0810 
    119 H119       27.2829   -0.9180  -12.7337 H         1 UNK         0.0810 
    120 H120       28.9738   -0.5191   -9.5913 H         1 UNK         0.3040 
    121 H121       31.3752   -0.6675  -11.1405 H         1 UNK         0.0766 
    122 H122       30.6653   -2.4191   -9.5268 H         1 UNK         0.0812 
    123 H123       30.8506   -1.2814   -8.1905 H         1 UNK         0.0812 
    124 H124       32.2586   -1.8125   -9.1033 H         1 UNK         0.0812 
    125 H125       30.3276    1.6583   -8.7246 H         1 UNK         0.3205 
    126 H126       31.0838    3.5417   -7.9472 H         1 UNK         0.0754 
    127 H127       33.5919    3.3455   -9.6959 H         1 UNK         0.0769 
    128 H128       33.0292    4.7613   -8.8260 H         1 UNK         0.0769 
    129 H129       32.0794    4.1247  -10.1594 H         1 UNK         0.0769 
    130 H130       33.3014    0.8380   -7.9021 H         1 UNK         0.2981 
    131 H131       34.4486   -0.1718   -6.3263 H         1 UNK         0.0541 
    132 H132       36.9293    2.7811   -6.4751 H         1 UNK         0.3459 
    133 H133       35.5344    2.5158   -7.4926 H         1 UNK         0.3459 
    134 H134       33.0731    1.5575   -4.2178 H         1 UNK         0.0612 
    135 H135       33.9683    0.0996   -3.9007 H         1 UNK         0.0612 
    136 H136       32.7603   -1.9897   -3.3742 H         1 UNK         0.0624 
    137 H137       33.2306   -2.3365   -5.0238 H         1 UNK         0.0624 
@<TRIPOS>BOND
     1    1    2 1    
     2    1   72 1    
     3    1   73 1    
     4    1   74 1    
     5    2    3 2    
     6    2    4 am   BACKBONE|DICT|INTERRES
     7    4    5 1    
     8    4   75 1    
     9    5    6 1    
    10    5   35 1    
    11    5   76 1    
    12    6    7 1    
    13    6   77 1    
    14    6   78 1    
    15    7    8 1    
    16    8    9 1    
    17    8   79 1    
    18    8   80 1    
    19    9   10 ar   
    20    9   14 ar   
    21   10   11 ar   
    22   10   81 1    
    23   11   12 ar   
    24   11   71 1    
    25   12   13 ar   
    26   12   82 1    
    27   13   14 ar   
    28   13   15 1    
    29   14   83 1    
    30   15   16 1    
    31   15   84 1    
    32   15   85 1    
    33   16   17 1    
    34   17   18 1    
    35   17   86 1    
    36   17   87 1    
    37   18   19 1    
    38   18   37 1    
    39   18   88 1    
    40   19   20 am   BACKBONE|DICT|INTERRES
    41   19   89 1    
    42   20   21 2    
    43   20   22 1    
    44   22   23 1    
    45   22   24 1    
    46   22   90 1    
    47   23   91 1    
    48   23   92 1    
    49   23   93 1    
    50   24   25 am   BACKBONE|DICT|INTERRES
    51   24   94 1    
    52   25   26 2    
    53   25   27 1    
    54   27   28 1    
    55   27   29 1    
    56   27   95 1    
    57   28   96 1    
    58   28   97 1    
    59   28   98 1    
    60   29   30 am   BACKBONE|DICT|INTERRES
    61   29   99 1    
    62   30   31 2    
    63   30   32 1    
    64   32   33 1    
    65   32   34 1    
    66   32  100 1    
    67   33  101 1    
    68   33  102 1    
    69   33  103 1    
    70   34   35 am   BACKBONE|DICT|INTERRES
    71   34  104 1    
    72   35   36 2    
    73   37   38 2    
    74   37   39 am   BACKBONE|DICT|INTERRES
    75   39   40 1    
    76   39  105 1    
    77   40   41 1    
    78   40   42 1    
    79   40  106 1    
    80   41  107 1    
    81   41  108 1    
    82   41  109 1    
    83   42   43 2    
    84   42   44 am   BACKBONE|DICT|INTERRES
    85   44   45 1    
    86   44  110 1    
    87   45   46 1    
    88   45   47 1    
    89   45  111 1    
    90   46  112 1    
    91   46  113 1    
    92   46  114 1    
    93   47   48 2    
    94   47   49 am   BACKBONE|DICT|INTERRES
    95   49   50 1    
    96   49  115 1    
    97   50   51 1    
    98   50   52 1    
    99   50  116 1    
   100   51  117 1    
   101   51  118 1    
   102   51  119 1    
   103   52   53 2    
   104   52   54 am   BACKBONE|DICT|INTERRES
   105   54   55 1    
   106   54  120 1    
   107   55   56 1    
   108   55   57 1    
   109   55  121 1    
   110   56  122 1    
   111   56  123 1    
   112   56  124 1    
   113   57   58 2    
   114   57   59 am   BACKBONE|DICT|INTERRES
   115   59   60 1    
   116   59  125 1    
   117   60   61 1    
   118   60   62 1    
   119   60  126 1    
   120   61  127 1    
   121   61  128 1    
   122   61  129 1    
   123   62   63 2    
   124   62   64 am   BACKBONE|DICT|INTERRES
   125   64   65 1    
   126   64  130 1    
   127   65   66 1    
   128   65   69 1    
   129   65  131 1    
   130   66   67 am   BACKBONE|DICT|INTERRES
   131   66   68 2    
   132   67  132 1    
   133   67  133 1    
   134   69   70 1    
   135   69  134 1    
   136   69  135 1    
   137   70   71 1    
   138   71  136 1    
   139   71  137 1    
@<TRIPOS>SUBSTRUCTURE
     1 UNK         1 GROUP             0       ****    0 ROOT    
