@<TRIPOS>MOLECULE
3R137
137   139    1
SMALL
USER_CHARGES


@<TRIPOS>ATOM
      1 CA         28.6025   -6.8963    1.8479 C.3       0 UNK        -0.2020 
      2 C          27.8302   -5.6540    1.4309 C.2       0 UNK         0.4855 
      3 O          26.7459   -5.3981    1.9574 O.2       0 UNK        -0.5197 
      4 N          28.3720   -4.8782    0.4842 N.am      1 UNK        -0.4892 
      5 CA         27.7742   -3.6601   -0.0726 C.3       1 UNK         0.0835 
      6 C6         28.8492   -2.6920   -0.6397 C.3       12 UNK        -0.0855 
      7 S7         30.0719   -3.4525   -1.7724 S.3       12 UNK        -0.2931 
      8 C8         31.4507   -2.2628   -1.6738 C.3       12 UNK         0.0378 
      9 C9         31.1634   -0.9843   -2.4511 C.ar      12 UNK        -0.0802 
     10 C10        31.6773   -0.8067   -3.7401 C.ar      12 UNK        -0.0944 
     11 C11        31.4227    0.3726   -4.4488 C.ar      12 UNK        -0.0787 
     12 C12        30.6413    1.3738   -3.8653 C.ar      12 UNK        -0.0862 
     13 C13        30.1029    1.1968   -2.5887 C.ar      12 UNK        -0.0733 
     14 C14        30.3895    0.0288   -1.8778 C.ar      12 UNK        -0.0832 
     15 C15        29.1952    2.2492   -1.9738 C.3       12 UNK         0.0240 
     16 S16        27.4451    1.7762   -2.1565 S.3       12 UNK        -0.2522 
     17 C17        26.9768    2.5888   -3.7240 C.3       12 UNK        -0.0967 
     18 CA         27.2012    1.7300   -4.9957 C.3       5 UNK         0.0660 
     19 N          26.6775    0.3639   -4.8551 N.am      5 UNK        -0.4015 
     20 C          26.6998   -0.6049   -5.7839 C.2       4 UNK         0.4946 
     21 O          27.1116   -0.4402   -6.9314 O.2       4 UNK        -0.5353 
     22 CA         26.1518   -1.9884   -5.3943 C.3       4 UNK         0.0277 
     23 CB         27.3074   -2.9958   -5.2750 C.3       4 UNK        -0.1981 
     24 N          25.3533   -2.0065   -4.1618 N.am      4 UNK        -0.4209 
     25 C          24.1473   -1.4304   -4.0199 C.2       3 UNK         0.4942 
     26 O          23.6092   -0.7756   -4.9152 O.2       3 UNK        -0.5208 
     27 CA         23.4374   -1.5716   -2.6531 C.3       3 UNK         0.0250 
     28 CB         21.9000   -1.4845   -2.7693 C.3       3 UNK        -0.1990 
     29 N          23.8406   -2.7597   -1.8880 N.am      3 UNK        -0.4232 
     30 C          23.7063   -4.0476   -2.2443 C.2       2 UNK         0.4993 
     31 O          23.1022   -4.4192   -3.2522 O.2       2 UNK        -0.5286 
     32 CA         24.3886   -5.0949   -1.3323 C.3       2 UNK         0.0209 
     33 CB         24.7754   -6.3726   -2.1084 C.3       2 UNK        -0.1931 
     34 N          25.5594   -4.6017   -0.5841 N.am      2 UNK        -0.4546 
     35 C          26.6468   -3.9878   -1.0773 C.2       1 UNK         0.5154 
     36 O          26.7615   -3.6726   -2.2612 O.2       1 UNK        -0.5181 
     37 C          26.6799    2.4933   -6.2332 C.2       5 UNK         0.5014 
     38 O          27.3880    3.3611   -6.7456 O.2       5 UNK        -0.5248 
     39 N          25.4784    2.1397   -6.7155 N.am      6 UNK        -0.4434 
     40 CA         24.8718    2.6456   -7.9508 C.3       6 UNK         0.0363 
     41 CB         23.4527    2.0691   -8.0806 C.3       6 UNK        -0.1936 
     42 C          25.6892    2.3529   -9.2266 C.2       6 UNK         0.5081 
     43 O          25.5182    3.0617  -10.2186 O.2       6 UNK        -0.5248 
     44 N          26.5722    1.3434   -9.1852 N.am      7 UNK        -0.4718 
     45 CA         27.5168    1.0140  -10.2565 C.3       7 UNK         0.0273 
     46 CB         27.9685   -0.4426  -10.0793 C.3       7 UNK        -0.1935 
     47 C          28.7309    1.9646  -10.3193 C.2       7 UNK         0.5018 
     48 O          29.4963    1.8831  -11.2840 O.2       7 UNK        -0.5186 
     49 N          28.8880    2.8366   -9.3086 N.am      8 UNK        -0.4240 
     50 CA         29.8529    3.9345   -9.1512 C.3       8 UNK         0.0235 
     51 CB         29.6329    5.0197  -10.2238 C.3       8 UNK        -0.2000 
     52 C          31.3302    3.5120   -9.0835 C.2       8 UNK         0.4941 
     53 O          32.0090    3.8394   -8.1095 O.2       8 UNK        -0.5273 
     54 N          31.7976    2.8175  -10.1226 N.am      9 UNK        -0.4262 
     55 CA         33.1615    2.3158  -10.2787 C.3       9 UNK         0.0264 
     56 CB         33.9106    3.1770  -11.3091 C.3       9 UNK        -0.1955 
     57 C          33.1851    0.8375  -10.6898 C.2       9 UNK         0.5031 
     58 O          34.1371    0.1411  -10.3345 O.2       9 UNK        -0.5390 
     59 N          32.1465    0.3545  -11.3934 N.am      10 UNK        -0.4204 
     60 CA         32.0336   -1.0451  -11.8291 C.3       10 UNK         0.0237 
     61 CB         30.9550   -1.1632  -12.9186 C.3       10 UNK        -0.1985 
     62 C          31.8003   -2.0391  -10.6727 C.2       10 UNK         0.4970 
     63 O          32.0256   -3.2364  -10.8517 O.2       10 UNK        -0.4914 
     64 N          31.4020   -1.5218   -9.5044 N.am      11 UNK        -0.4285 
     65 CA         31.4187   -2.2105   -8.2069 C.3       11 UNK         0.1007 
     66 C          32.8418   -2.5058   -7.6440 C.2       11 UNK         0.5703 
     67 N          33.9154   -1.9343   -8.1801 N.am      11 UNK        -0.7361 
     68 O          32.9738   -3.2804   -6.6997 O.2       11 UNK        -0.4986 
     69 C69        30.5293   -1.4795   -7.1616 C.3       12 UNK        -0.0947 
     70 S70        30.7368    0.3386   -7.1354 S.3       12 UNK        -0.2240 
     71 C71        31.9942    0.5767   -5.8429 C.3       12 UNK         0.0194 
     72 H72        28.0082   -7.7892    1.6555 H         1 UNK         0.0906 
     73 H73        29.5440   -6.9918    1.3070 H         1 UNK         0.0906 
     74 H74        28.8260   -6.8587    2.9138 H         1 UNK         0.0906 
     75 H75        29.2495   -5.1449    0.0577 H         1 UNK         0.3140 
     76 H76        27.2866   -3.1248    0.7459 H         1 UNK         0.1085 
     77 H77        28.3737   -1.8512   -1.1484 H         1 UNK         0.0836 
     78 H78        29.3944   -2.2575    0.1995 H         1 UNK         0.0836 
     79 H79        32.3492   -2.7417   -2.0661 H         1 UNK         0.0731 
     80 H80        31.6674   -2.0292   -0.6303 H         1 UNK         0.0731 
     81 H81        32.2766   -1.5856   -4.1923 H         1 UNK         0.1312 
     82 H82        30.4372    2.2814   -4.4169 H         1 UNK         0.1406 
     83 H83        29.9879   -0.0974   -0.8823 H         1 UNK         0.1631 
     84 H84        29.3778    3.2309   -2.4130 H         1 UNK         0.0717 
     85 H85        29.4218    2.3471   -0.9110 H         1 UNK         0.0717 
     86 H86        25.9211    2.8543   -3.6349 H         1 UNK         0.0934 
     87 H87        27.5107    3.5378   -3.8067 H         1 UNK         0.0934 
     88 H88        28.2738    1.6165   -5.1488 H         1 UNK         0.0739 
     89 H89        26.3367    0.1246   -3.9361 H         1 UNK         0.3093 
     90 H90        25.5027   -2.3146   -6.2098 H         1 UNK         0.0818 
     91 H91        28.0167   -2.7056   -4.4976 H         1 UNK         0.0819 
     92 H92        26.9415   -3.9952   -5.0389 H         1 UNK         0.0819 
     93 H93        27.8617   -3.0689   -6.2114 H         1 UNK         0.0819 
     94 H94        25.7412   -2.5494   -3.3923 H         1 UNK         0.3041 
     95 H95        23.7662   -0.7138   -2.0645 H         1 UNK         0.0784 
     96 H96        21.5919   -0.5286   -3.1950 H         1 UNK         0.0793 
     97 H97        21.4972   -2.2687   -3.4110 H         1 UNK         0.0793 
     98 H98        21.4223   -1.5705   -1.7932 H         1 UNK         0.0793 
     99 H99        24.3531   -2.5740   -1.0372 H         1 UNK         0.3024 
    100 H100       23.6400   -5.3725   -0.5880 H         1 UNK         0.1171 
    101 H101       25.2296   -7.1144   -1.4509 H         1 UNK         0.0786 
    102 H102       23.9010   -6.8399   -2.5632 H         1 UNK         0.0786 
    103 H103       25.4839   -6.1559   -2.9094 H         1 UNK         0.0786 
    104 H104       25.5856   -4.8366    0.4049 H         1 UNK         0.2977 
    105 H105       24.9766    1.4036   -6.2374 H         1 UNK         0.3127 
    106 H106       24.7963    3.7311   -7.8588 H         1 UNK         0.0770 
    107 H107       23.4651    0.9802   -8.1472 H         1 UNK         0.0814 
    108 H108       22.9580    2.4456   -8.9772 H         1 UNK         0.0814 
    109 H109       22.8307    2.3466   -7.2293 H         1 UNK         0.0814 
    110 H110       26.6592    0.7942   -8.3317 H         1 UNK         0.2983 
    111 H111       26.9961    1.0942  -11.2130 H         1 UNK         0.0947 
    112 H112       28.5715   -0.7767  -10.9201 H         1 UNK         0.0806 
    113 H113       27.1168   -1.1188  -10.0060 H         1 UNK         0.0806 
    114 H114       28.5683   -0.5640   -9.1798 H         1 UNK         0.0806 
    115 H115       28.2213    2.7733   -8.5458 H         1 UNK         0.3000 
    116 H116       29.6187    4.3845   -8.1847 H         1 UNK         0.0850 
    117 H117       30.3086    5.8623  -10.0708 H         1 UNK         0.0810 
    118 H118       28.6156    5.4098  -10.1855 H         1 UNK         0.0810 
    119 H119       29.8070    4.6429  -11.2322 H         1 UNK         0.0810 
    120 H120       31.1135    2.5706  -10.8335 H         1 UNK         0.3040 
    121 H121       33.6899    2.3826   -9.3249 H         1 UNK         0.0766 
    122 H122       34.9342    2.8243  -11.4434 H         1 UNK         0.0812 
    123 H123       33.9664    4.2174  -10.9878 H         1 UNK         0.0812 
    124 H124       33.4249    3.1535  -12.2857 H         1 UNK         0.0812 
    125 H125       31.3691    0.9599  -11.6287 H         1 UNK         0.3205 
    126 H126       32.9860   -1.3282  -12.2830 H         1 UNK         0.0754 
    127 H127       30.0002   -0.7496  -12.6003 H         1 UNK         0.0769 
    128 H128       30.7874   -2.2042  -13.1991 H         1 UNK         0.0769 
    129 H129       31.2552   -0.6325  -13.8225 H         1 UNK         0.0769 
    130 H130       31.2442   -0.5269   -9.4507 H         1 UNK         0.2981 
    131 H131       30.9710   -3.1927   -8.3692 H         1 UNK         0.0541 
    132 H132       33.8434   -1.2829   -8.9539 H         1 UNK         0.3459 
    133 H133       34.8220   -2.1503   -7.7983 H         1 UNK         0.3459 
    134 H134       30.6629   -1.8878   -6.1590 H         1 UNK         0.0612 
    135 H135       29.4841   -1.6728   -7.3990 H         1 UNK         0.0612 
    136 H136       32.3845    1.5922   -5.9267 H         1 UNK         0.0624 
    137 H137       32.8409   -0.0870   -6.0188 H         1 UNK         0.0624 
@<TRIPOS>BOND
     1    1    2 1    
     2    1   72 1    
     3    1   73 1    
     4    1   74 1    
     5    2    3 2    
     6    2    4 am   BACKBONE|DICT|INTERRES
     7    4    5 1    
     8    4   75 1    
     9    5    6 1    
    10    5   35 1    
    11    5   76 1    
    12    6    7 1    
    13    6   77 1    
    14    6   78 1    
    15    7    8 1    
    16    8    9 1    
    17    8   79 1    
    18    8   80 1    
    19    9   10 ar   
    20    9   14 ar   
    21   10   11 ar   
    22   10   81 1    
    23   11   12 ar   
    24   11   71 1    
    25   12   13 ar   
    26   12   82 1    
    27   13   14 ar   
    28   13   15 1    
    29   14   83 1    
    30   15   16 1    
    31   15   84 1    
    32   15   85 1    
    33   16   17 1    
    34   17   18 1    
    35   17   86 1    
    36   17   87 1    
    37   18   19 1    
    38   18   37 1    
    39   18   88 1    
    40   19   20 am   BACKBONE|DICT|INTERRES
    41   19   89 1    
    42   20   21 2    
    43   20   22 1    
    44   22   23 1    
    45   22   24 1    
    46   22   90 1    
    47   23   91 1    
    48   23   92 1    
    49   23   93 1    
    50   24   25 am   BACKBONE|DICT|INTERRES
    51   24   94 1    
    52   25   26 2    
    53   25   27 1    
    54   27   28 1    
    55   27   29 1    
    56   27   95 1    
    57   28   96 1    
    58   28   97 1    
    59   28   98 1    
    60   29   30 am   BACKBONE|DICT|INTERRES
    61   29   99 1    
    62   30   31 2    
    63   30   32 1    
    64   32   33 1    
    65   32   34 1    
    66   32  100 1    
    67   33  101 1    
    68   33  102 1    
    69   33  103 1    
    70   34   35 am   BACKBONE|DICT|INTERRES
    71   34  104 1    
    72   35   36 2    
    73   37   38 2    
    74   37   39 am   BACKBONE|DICT|INTERRES
    75   39   40 1    
    76   39  105 1    
    77   40   41 1    
    78   40   42 1    
    79   40  106 1    
    80   41  107 1    
    81   41  108 1    
    82   41  109 1    
    83   42   43 2    
    84   42   44 am   BACKBONE|DICT|INTERRES
    85   44   45 1    
    86   44  110 1    
    87   45   46 1    
    88   45   47 1    
    89   45  111 1    
    90   46  112 1    
    91   46  113 1    
    92   46  114 1    
    93   47   48 2    
    94   47   49 am   BACKBONE|DICT|INTERRES
    95   49   50 1    
    96   49  115 1    
    97   50   51 1    
    98   50   52 1    
    99   50  116 1    
   100   51  117 1    
   101   51  118 1    
   102   51  119 1    
   103   52   53 2    
   104   52   54 am   BACKBONE|DICT|INTERRES
   105   54   55 1    
   106   54  120 1    
   107   55   56 1    
   108   55   57 1    
   109   55  121 1    
   110   56  122 1    
   111   56  123 1    
   112   56  124 1    
   113   57   58 2    
   114   57   59 am   BACKBONE|DICT|INTERRES
   115   59   60 1    
   116   59  125 1    
   117   60   61 1    
   118   60   62 1    
   119   60  126 1    
   120   61  127 1    
   121   61  128 1    
   122   61  129 1    
   123   62   63 2    
   124   62   64 am   BACKBONE|DICT|INTERRES
   125   64   65 1    
   126   64  130 1    
   127   65   66 1    
   128   65   69 1    
   129   65  131 1    
   130   66   67 am   BACKBONE|DICT|INTERRES
   131   66   68 2    
   132   67  132 1    
   133   67  133 1    
   134   69   70 1    
   135   69  134 1    
   136   69  135 1    
   137   70   71 1    
   138   71  136 1    
   139   71  137 1    
@<TRIPOS>SUBSTRUCTURE
     1 UNK         1 GROUP             0       ****    0 ROOT    
