@<TRIPOS>MOLECULE
3R137
137   139    1
SMALL
USER_CHARGES


@<TRIPOS>ATOM
      1 CA         25.2705   -4.3658   -8.9893 C.3       0 UNK        -0.2020 
      2 C          25.3603   -4.5998   -7.4891 C.2       0 UNK         0.4855 
      3 O          24.5973   -5.3988   -6.9446 O.2       0 UNK        -0.5197 
      4 N          26.2874   -3.9090   -6.8145 N.am      1 UNK        -0.4892 
      5 CA         26.5507   -3.9999   -5.3733 C.3       1 UNK         0.0835 
      6 C6         27.9824   -3.5117   -5.0381 C.3       12 UNK        -0.0855 
      7 S7         29.2426   -4.7122   -5.5784 S.3       12 UNK        -0.2931 
      8 C8         30.1578   -4.9959   -4.0291 C.3       12 UNK         0.0378 
      9 C9         31.0677   -3.8210   -3.6989 C.ar      12 UNK        -0.0802 
     10 C10        32.2949   -3.6954   -4.3539 C.ar      12 UNK        -0.0944 
     11 C11        33.1499   -2.6249   -4.0730 C.ar      12 UNK        -0.0787 
     12 C12        32.7633   -1.6784   -3.1179 C.ar      12 UNK        -0.0862 
     13 C13        31.5471   -1.7995   -2.4365 C.ar      12 UNK        -0.0733 
     14 C14        30.7031   -2.8769   -2.7329 C.ar      12 UNK        -0.0832 
     15 C15        31.2042   -0.8036   -1.3296 C.3       12 UNK         0.0240 
     16 S16        29.4716   -0.2323   -1.3332 S.3       12 UNK        -0.2522 
     17 C17        29.4029    0.7815   -2.8477 C.3       12 UNK        -0.0967 
     18 CA         28.3678    0.2252   -3.8579 C.3       5 UNK         0.0660 
     19 N          26.9890    0.1433   -3.3410 N.am      5 UNK        -0.4015 
     20 C          26.2167    1.1367   -2.8815 C.2       4 UNK         0.4946 
     21 O          26.5627    2.3203   -2.8508 O.2       4 UNK        -0.5353 
     22 CA         24.7866    0.7800   -2.4672 C.3       4 UNK         0.0277 
     23 CB         24.4995    1.2391   -1.0244 C.3       4 UNK        -0.1981 
     24 N          23.9191    1.4611   -3.4264 N.am      4 UNK        -0.4209 
     25 C          22.6343    1.2600   -3.7523 C.2       3 UNK         0.4942 
     26 O          22.1118    1.9333   -4.6406 O.2       3 UNK        -0.5208 
     27 CA         21.7752    0.2068   -3.0077 C.3       3 UNK         0.0250 
     28 CB         20.3084    0.1951   -3.4927 C.3       3 UNK        -0.1990 
     29 N          22.3040   -1.1619   -3.0324 N.am      3 UNK        -0.4232 
     30 C          22.6620   -1.8888   -4.1006 C.2       2 UNK         0.4993 
     31 O          22.6190   -1.4971   -5.2679 O.2       2 UNK        -0.5286 
     32 CA         23.0937   -3.3335   -3.7987 C.3       2 UNK         0.0209 
     33 CB         21.9193   -4.3000   -4.0244 C.3       2 UNK        -0.1931 
     34 N          24.2338   -3.7762   -4.6019 N.am      2 UNK        -0.4546 
     35 C          25.4713   -3.2721   -4.5405 C.2       1 UNK         0.5154 
     36 O          25.7757   -2.2996   -3.8459 O.2       1 UNK        -0.5181 
     37 C          28.4561    0.9561   -5.2132 C.2       5 UNK         0.5014 
     38 O          29.0689    0.4331   -6.1459 O.2       5 UNK        -0.5248 
     39 N          27.8047    2.1212   -5.3280 N.am      6 UNK        -0.4434 
     40 CA         27.6824    2.9463   -6.5348 C.3       6 UNK         0.0363 
     41 CB         26.8837    4.2149   -6.1998 C.3       6 UNK        -0.1936 
     42 C          27.0515    2.2169   -7.7353 C.2       6 UNK         0.5081 
     43 O          27.3558    2.5642   -8.8753 O.2       6 UNK        -0.5248 
     44 N          26.2510    1.1744   -7.4704 N.am      7 UNK        -0.4718 
     45 CA         25.7191    0.2413   -8.4693 C.3       7 UNK         0.0273 
     46 CB         24.7151   -0.6994   -7.7862 C.3       7 UNK        -0.1935 
     47 C          26.8045   -0.5647   -9.2135 C.2       7 UNK         0.5018 
     48 O          26.5506   -1.0174  -10.3293 O.2       7 UNK        -0.5186 
     49 N          27.9896   -0.7080   -8.6029 N.am      8 UNK        -0.4240 
     50 CA         29.2048   -1.2525   -9.2141 C.3       8 UNK         0.0235 
     51 CB         29.6739   -2.4673   -8.3933 C.3       8 UNK        -0.2000 
     52 C          30.3025   -0.1728   -9.3033 C.2       8 UNK         0.4941 
     53 O          31.4864   -0.5140   -9.3367 O.2       8 UNK        -0.5273 
     54 N          29.9064    1.1127   -9.2883 N.am      9 UNK        -0.4262 
     55 CA         30.7521    2.3164   -9.2938 C.3       9 UNK         0.0264 
     56 CB         31.4279    2.4831  -10.6713 C.3       9 UNK        -0.1955 
     57 C          31.7703    2.3777   -8.1351 C.2       9 UNK         0.5031 
     58 O          32.8191    3.0081   -8.2847 O.2       9 UNK        -0.5390 
     59 N          31.4792    1.6758   -7.0264 N.am      10 UNK        -0.4204 
     60 CA         32.3676    1.3967   -5.8905 C.3       10 UNK         0.0237 
     61 CB         32.5287    2.6533   -5.0112 C.3       10 UNK        -0.1985 
     62 C          33.7163    0.7714   -6.3109 C.2       10 UNK         0.4970 
     63 O          34.7324    1.0151   -5.6581 O.2       10 UNK        -0.4914 
     64 N          33.6958   -0.0023   -7.4066 N.am      11 UNK        -0.4285 
     65 CA         34.8555   -0.6029   -8.0832 C.3       11 UNK         0.1007 
     66 C          35.8089    0.4252   -8.7665 C.2       11 UNK         0.5703 
     67 N          35.4170    1.6809   -8.9564 N.am      11 UNK        -0.7361 
     68 O          36.9170    0.0738   -9.1659 O.2       11 UNK        -0.4986 
     69 C69        35.6135   -1.6478   -7.2137 C.3       12 UNK        -0.0947 
     70 S70        34.5006   -2.9194   -6.5221 S.3       12 UNK        -0.2240 
     71 C71        34.5167   -2.5064   -4.7429 C.3       12 UNK         0.0194 
     72 H72        26.0444   -3.6859   -9.3451 H         1 UNK         0.0906 
     73 H73        25.3801   -5.3096   -9.5229 H         1 UNK         0.0906 
     74 H74        24.3004   -3.9409   -9.2454 H         1 UNK         0.0906 
     75 H75        26.8904   -3.2772   -7.3195 H         1 UNK         0.3140 
     76 H76        26.4861   -5.0509   -5.0808 H         1 UNK         0.1085 
     77 H77        28.0974   -3.3533   -3.9650 H         1 UNK         0.0836 
     78 H78        28.1860   -2.5502   -5.5114 H         1 UNK         0.0836 
     79 H79        30.7595   -5.8995   -4.1384 H         1 UNK         0.0731 
     80 H80        29.4605   -5.1949   -3.2137 H         1 UNK         0.0731 
     81 H81        32.5830   -4.4396   -5.0836 H         1 UNK         0.1312 
     82 H82        33.4295   -0.8600   -2.8799 H         1 UNK         0.1406 
     83 H83        29.7684   -2.9863   -2.2003 H         1 UNK         0.1631 
     84 H84        31.8566    0.0699   -1.3773 H         1 UNK         0.0717 
     85 H85        31.4051   -1.2807   -0.3696 H         1 UNK         0.0717 
     86 H86        29.1675    1.8093   -2.5666 H         1 UNK         0.0934 
     87 H87        30.3965    0.8144   -3.2983 H         1 UNK         0.0934 
     88 H88        28.6565   -0.8057   -4.0614 H         1 UNK         0.0739 
     89 H89        26.5710   -0.7862   -3.4032 H         1 UNK         0.3093 
     90 H90        24.6687   -0.2998   -2.5326 H         1 UNK         0.0818 
     91 H91        25.2495    0.8443   -0.3374 H         1 UNK         0.0819 
     92 H92        24.5208    2.3261   -0.9358 H         1 UNK         0.0819 
     93 H93        23.5326    0.8932   -0.6648 H         1 UNK         0.0819 
     94 H94        24.4036    2.1926   -3.9284 H         1 UNK         0.3041 
     95 H95        21.7520    0.5148   -1.9632 H         1 UNK         0.0784 
     96 H96        19.8545    1.1826   -3.3982 H         1 UNK         0.0793 
     97 H97        20.2321   -0.1006   -4.5399 H         1 UNK         0.0793 
     98 H98        19.7015   -0.4945   -2.9060 H         1 UNK         0.0793 
     99 H99        22.3834   -1.5972   -2.1237 H         1 UNK         0.3024 
    100 H100       23.3957   -3.3964   -2.7507 H         1 UNK         0.1171 
    101 H101       21.6005   -4.3067   -5.0678 H         1 UNK         0.0786 
    102 H102       22.1849   -5.3207   -3.7482 H         1 UNK         0.0786 
    103 H103       21.0555   -4.0163   -3.4213 H         1 UNK         0.0786 
    104 H104       24.0697   -4.5199   -5.2744 H         1 UNK         0.2977 
    105 H105       27.3343    2.4587   -4.4888 H         1 UNK         0.3127 
    106 H106       28.6910    3.2431   -6.8288 H         1 UNK         0.0770 
    107 H107       25.8710    3.9792   -5.8701 H         1 UNK         0.0814 
    108 H108       26.8004    4.8661   -7.0712 H         1 UNK         0.0814 
    109 H109       27.3674    4.7919   -5.4114 H         1 UNK         0.0814 
    110 H110       26.0466    0.9675   -6.5043 H         1 UNK         0.2983 
    111 H111       25.1849    0.8268   -9.2209 H         1 UNK         0.0947 
    112 H112       24.3021   -1.4182   -8.4950 H         1 UNK         0.0806 
    113 H113       23.8744   -0.1439   -7.3696 H         1 UNK         0.0806 
    114 H114       25.1724   -1.2638   -6.9736 H         1 UNK         0.0806 
    115 H115       28.1236   -0.2885   -7.6867 H         1 UNK         0.3000 
    116 H116       29.0076   -1.5830  -10.2358 H         1 UNK         0.0850 
    117 H117       29.9360   -2.1853   -7.3724 H         1 UNK         0.0810 
    118 H118       30.5561   -2.9294   -8.8384 H         1 UNK         0.0810 
    119 H119       28.9038   -3.2362   -8.3451 H         1 UNK         0.0810 
    120 H120       28.9101    1.3047   -9.2603 H         1 UNK         0.3040 
    121 H121       30.0810    3.1640   -9.1493 H         1 UNK         0.0766 
    122 H122       32.1647    1.7005  -10.8560 H         1 UNK         0.0812 
    123 H123       30.6962    2.4529  -11.4785 H         1 UNK         0.0812 
    124 H124       31.9458    3.4403  -10.7429 H         1 UNK         0.0812 
    125 H125       30.5860    1.1894   -6.9885 H         1 UNK         0.3205 
    126 H126       31.8648    0.6345   -5.2935 H         1 UNK         0.0754 
    127 H127       33.0823    2.4265   -4.0993 H         1 UNK         0.0769 
    128 H128       31.5598    3.0519   -4.7100 H         1 UNK         0.0769 
    129 H129       33.0690    3.4429   -5.5345 H         1 UNK         0.0769 
    130 H130       32.8173   -0.1274   -7.9005 H         1 UNK         0.2981 
    131 H131       34.4215   -1.1518   -8.9196 H         1 UNK         0.0541 
    132 H132       36.0446    2.3248   -9.4103 H         1 UNK         0.3459 
    133 H133       34.5070    2.0040   -8.6441 H         1 UNK         0.3459 
    134 H134       36.1769   -1.1574   -6.4190 H         1 UNK         0.0612 
    135 H135       36.3546   -2.1713   -7.8199 H         1 UNK         0.0612 
    136 H136       35.2161   -3.1732   -4.2375 H         1 UNK         0.0624 
    137 H137       34.9029   -1.4969   -4.6026 H         1 UNK         0.0624 
@<TRIPOS>BOND
     1    1    2 1    
     2    1   72 1    
     3    1   73 1    
     4    1   74 1    
     5    2    3 2    
     6    2    4 am   BACKBONE|DICT|INTERRES
     7    4    5 1    
     8    4   75 1    
     9    5    6 1    
    10    5   35 1    
    11    5   76 1    
    12    6    7 1    
    13    6   77 1    
    14    6   78 1    
    15    7    8 1    
    16    8    9 1    
    17    8   79 1    
    18    8   80 1    
    19    9   10 ar   
    20    9   14 ar   
    21   10   11 ar   
    22   10   81 1    
    23   11   12 ar   
    24   11   71 1    
    25   12   13 ar   
    26   12   82 1    
    27   13   14 ar   
    28   13   15 1    
    29   14   83 1    
    30   15   16 1    
    31   15   84 1    
    32   15   85 1    
    33   16   17 1    
    34   17   18 1    
    35   17   86 1    
    36   17   87 1    
    37   18   19 1    
    38   18   37 1    
    39   18   88 1    
    40   19   20 am   BACKBONE|DICT|INTERRES
    41   19   89 1    
    42   20   21 2    
    43   20   22 1    
    44   22   23 1    
    45   22   24 1    
    46   22   90 1    
    47   23   91 1    
    48   23   92 1    
    49   23   93 1    
    50   24   25 am   BACKBONE|DICT|INTERRES
    51   24   94 1    
    52   25   26 2    
    53   25   27 1    
    54   27   28 1    
    55   27   29 1    
    56   27   95 1    
    57   28   96 1    
    58   28   97 1    
    59   28   98 1    
    60   29   30 am   BACKBONE|DICT|INTERRES
    61   29   99 1    
    62   30   31 2    
    63   30   32 1    
    64   32   33 1    
    65   32   34 1    
    66   32  100 1    
    67   33  101 1    
    68   33  102 1    
    69   33  103 1    
    70   34   35 am   BACKBONE|DICT|INTERRES
    71   34  104 1    
    72   35   36 2    
    73   37   38 2    
    74   37   39 am   BACKBONE|DICT|INTERRES
    75   39   40 1    
    76   39  105 1    
    77   40   41 1    
    78   40   42 1    
    79   40  106 1    
    80   41  107 1    
    81   41  108 1    
    82   41  109 1    
    83   42   43 2    
    84   42   44 am   BACKBONE|DICT|INTERRES
    85   44   45 1    
    86   44  110 1    
    87   45   46 1    
    88   45   47 1    
    89   45  111 1    
    90   46  112 1    
    91   46  113 1    
    92   46  114 1    
    93   47   48 2    
    94   47   49 am   BACKBONE|DICT|INTERRES
    95   49   50 1    
    96   49  115 1    
    97   50   51 1    
    98   50   52 1    
    99   50  116 1    
   100   51  117 1    
   101   51  118 1    
   102   51  119 1    
   103   52   53 2    
   104   52   54 am   BACKBONE|DICT|INTERRES
   105   54   55 1    
   106   54  120 1    
   107   55   56 1    
   108   55   57 1    
   109   55  121 1    
   110   56  122 1    
   111   56  123 1    
   112   56  124 1    
   113   57   58 2    
   114   57   59 am   BACKBONE|DICT|INTERRES
   115   59   60 1    
   116   59  125 1    
   117   60   61 1    
   118   60   62 1    
   119   60  126 1    
   120   61  127 1    
   121   61  128 1    
   122   61  129 1    
   123   62   63 2    
   124   62   64 am   BACKBONE|DICT|INTERRES
   125   64   65 1    
   126   64  130 1    
   127   65   66 1    
   128   65   69 1    
   129   65  131 1    
   130   66   67 am   BACKBONE|DICT|INTERRES
   131   66   68 2    
   132   67  132 1    
   133   67  133 1    
   134   69   70 1    
   135   69  134 1    
   136   69  135 1    
   137   70   71 1    
   138   71  136 1    
   139   71  137 1    
@<TRIPOS>SUBSTRUCTURE
     1 UNK         1 GROUP             0       ****    0 ROOT    
