@<TRIPOS>MOLECULE
3R137
137   139    1
SMALL
USER_CHARGES


@<TRIPOS>ATOM
      1 CA         23.0325   -5.5990   -0.9347 C.3       0 UNK        -0.2020 
      2 C          24.3424   -4.8632   -0.6976 C.2       0 UNK         0.4855 
      3 O          24.5033   -4.2129    0.3359 O.2       0 UNK        -0.5197 
      4 N          25.2795   -4.9458   -1.6514 N.am      1 UNK        -0.4892 
      5 CA         26.5947   -4.2944   -1.6168 C.3       1 UNK         0.0835 
      6 C6         27.6055   -5.0665   -2.5055 C.3       12 UNK        -0.0855 
      7 S7         29.3465   -4.6443   -2.1462 S.3       12 UNK        -0.2931 
      8 C8         29.8819   -3.9357   -3.7392 C.3       12 UNK         0.0378 
      9 C9         30.8170   -2.7518   -3.5536 C.ar      12 UNK        -0.0802 
     10 C10        32.1073   -2.7634   -4.0906 C.ar      12 UNK        -0.0944 
     11 C11        32.9386   -1.6456   -3.9589 C.ar      12 UNK        -0.0787 
     12 C12        32.4667   -0.5090   -3.2932 C.ar      12 UNK        -0.0862 
     13 C13        31.1751   -0.4857   -2.7583 C.ar      12 UNK        -0.0733 
     14 C14        30.3640   -1.6159   -2.8807 C.ar      12 UNK        -0.0832 
     15 C15        30.6582    0.7548   -2.0453 C.3       12 UNK         0.0240 
     16 S16        29.8281    1.9033   -3.1912 S.3       12 UNK        -0.2522 
     17 C17        28.2199    1.0880   -3.4727 C.3       12 UNK        -0.0967 
     18 CA         27.9073    0.8669   -4.9781 C.3       5 UNK         0.0660 
     19 N          27.1328   -0.3609   -5.2089 N.am      5 UNK        -0.4015 
     20 C          26.7368   -0.8185   -6.4079 C.2       4 UNK         0.4946 
     21 O          27.0512   -0.3067   -7.4811 O.2       4 UNK        -0.5353 
     22 CA         25.7685   -2.0117   -6.4168 C.3       4 UNK         0.0277 
     23 CB         26.5227   -3.3477   -6.3630 C.3       4 UNK        -0.1981 
     24 N          24.7972   -1.9337   -5.3248 N.am      4 UNK        -0.4209 
     25 C          23.7805   -1.0595   -5.2905 C.2       3 UNK         0.4942 
     26 O          23.5214   -0.2758   -6.2030 O.2       3 UNK        -0.5208 
     27 CA         22.9405   -1.0217   -4.0023 C.3       3 UNK         0.0250 
     28 CB         21.8773   -2.1317   -4.0129 C.3       3 UNK        -0.1990 
     29 N          23.7560   -1.1347   -2.7904 N.am      3 UNK        -0.4232 
     30 C          24.6821   -0.2426   -2.4107 C.2       2 UNK         0.4993 
     31 O          24.9139    0.8032   -3.0161 O.2       2 UNK        -0.5286 
     32 CA         25.5316   -0.6035   -1.1807 C.3       2 UNK         0.0209 
     33 CB         24.8543   -0.1051    0.1051 C.3       2 UNK        -0.1931 
     34 N          25.8143   -2.0382   -1.0591 N.am      2 UNK        -0.4546 
     35 C          26.4571   -2.7925   -1.9619 C.2       1 UNK         0.5154 
     36 O          26.8645   -2.3504   -3.0389 O.2       1 UNK        -0.5181 
     37 C          27.2076    2.1067   -5.5763 C.2       5 UNK         0.5014 
     38 O          27.8341    2.8766   -6.3058 O.2       5 UNK        -0.5248 
     39 N          25.9100    2.2548   -5.2700 N.am      6 UNK        -0.4434 
     40 CA         25.0425    3.3133   -5.7867 C.3       6 UNK         0.0363 
     41 CB         23.6982    3.2788   -5.0422 C.3       6 UNK        -0.1936 
     42 C          24.8223    3.2309   -7.3070 C.2       6 UNK         0.5081 
     43 O          24.7486    4.2746   -7.9566 O.2       6 UNK        -0.5248 
     44 N          24.7173    2.0075   -7.8455 N.am      7 UNK        -0.4718 
     45 CA         24.5640    1.7467   -9.2771 C.3       7 UNK         0.0273 
     46 CB         24.1210    0.2922   -9.5063 C.3       7 UNK        -0.1935 
     47 C          25.8368    2.0743  -10.0746 C.2       7 UNK         0.5018 
     48 O          25.7655    2.8753  -11.0082 O.2       7 UNK        -0.5186 
     49 N          26.9680    1.4610   -9.7003 N.am      8 UNK        -0.4240 
     50 CA         28.2631    1.6219  -10.3588 C.3       8 UNK         0.0235 
     51 CB         28.2427    1.0184  -11.7820 C.3       8 UNK        -0.2000 
     52 C          29.3553    0.9700   -9.5033 C.2       8 UNK         0.4941 
     53 O          29.6201   -0.2255   -9.6566 O.2       8 UNK        -0.5273 
     54 N          30.0060    1.7627   -8.6420 N.am      9 UNK        -0.4262 
     55 CA         31.1729    1.3623   -7.8466 C.3       9 UNK         0.0264 
     56 CB         31.3633    2.3622   -6.6907 C.3       9 UNK        -0.1955 
     57 C          32.4427    1.2321   -8.7157 C.2       9 UNK         0.5031 
     58 O          33.3939    1.9964   -8.5397 O.2       9 UNK        -0.5390 
     59 N          32.4207    0.2891   -9.6669 N.am      10 UNK        -0.4204 
     60 CA         33.5308   -0.0185  -10.5726 C.3       10 UNK         0.0237 
     61 CB         33.0257   -0.8939  -11.7314 C.3       10 UNK        -0.1985 
     62 C          34.7046   -0.6907   -9.8424 C.2       10 UNK         0.4970 
     63 O          35.8542   -0.3128  -10.0708 O.2       10 UNK        -0.4914 
     64 N          34.3790   -1.6523   -8.9664 N.am      11 UNK        -0.4285 
     65 CA         35.2954   -2.3350   -8.0336 C.3       11 UNK         0.1007 
     66 C          36.4217   -3.1819   -8.7028 C.2       11 UNK         0.5703 
     67 N          36.2909   -3.5690   -9.9663 N.am      11 UNK        -0.7361 
     68 O          37.4125   -3.5272   -8.0627 O.2       11 UNK        -0.4986 
     69 C69        35.8235   -1.3827   -6.9203 C.3       12 UNK        -0.0947 
     70 S70        34.4600   -0.5896   -6.0021 S.3       12 UNK        -0.2240 
     71 C71        34.3431   -1.6652   -4.5416 C.3       12 UNK         0.0194 
     72 H72        22.2008   -4.8950   -0.9327 H         1 UNK         0.0906 
     73 H73        23.0270   -6.1279   -1.8876 H         1 UNK         0.0906 
     74 H74        22.8638   -6.3275   -0.1421 H         1 UNK         0.0906 
     75 H75        25.0825   -5.4815   -2.4855 H         1 UNK         0.3140 
     76 H76        26.9655   -4.3472   -0.5900 H         1 UNK         0.1085 
     77 H77        27.3763   -4.9432   -3.5644 H         1 UNK         0.0836 
     78 H78        27.5092   -6.1368   -2.3152 H         1 UNK         0.0836 
     79 H79        29.0233   -3.5826   -4.3075 H         1 UNK         0.0731 
     80 H80        30.3481   -4.7194   -4.3382 H         1 UNK         0.0731 
     81 H81        32.4617   -3.6384   -4.6182 H         1 UNK         0.1312 
     82 H82        33.1029    0.3611   -3.2028 H         1 UNK         0.1406 
     83 H83        29.3705   -1.6232   -2.4574 H         1 UNK         0.1631 
     84 H84        31.4895    1.2779   -1.5704 H         1 UNK         0.0717 
     85 H85        29.9763    0.4792   -1.2391 H         1 UNK         0.0717 
     86 H86        28.2130    0.1373   -2.9471 H         1 UNK         0.0934 
     87 H87        27.4482    1.6789   -2.9754 H         1 UNK         0.0934 
     88 H88        28.8459    0.7235   -5.5173 H         1 UNK         0.0739 
     89 H89        26.8692   -0.8967   -4.3881 H         1 UNK         0.3093 
     90 H90        25.2192   -1.9825   -7.3599 H         1 UNK         0.0818 
     91 H91        27.2552   -3.4145   -7.1687 H         1 UNK         0.0819 
     92 H92        25.8416   -4.1916   -6.4729 H         1 UNK         0.0819 
     93 H93        27.0578   -3.4701   -5.4246 H         1 UNK         0.0819 
     94 H94        24.9794   -2.5031   -4.5108 H         1 UNK         0.3041 
     95 H95        22.4293   -0.0569   -3.9710 H         1 UNK         0.0784 
     96 H96        21.2477   -2.0586   -4.9009 H         1 UNK         0.0793 
     97 H97        22.3262   -3.1259   -4.0125 H         1 UNK         0.0793 
     98 H98        21.2201   -2.0596   -3.1460 H         1 UNK         0.0793 
     99 H99        23.6304   -1.9611   -2.2250 H         1 UNK         0.3024 
    100 H100       26.4872   -0.0870   -1.2820 H         1 UNK         0.1171 
    101 H101       25.4916   -0.2624    0.9755 H         1 UNK         0.0786 
    102 H102       24.6457    0.9644    0.0477 H         1 UNK         0.0786 
    103 H103       23.9066   -0.6138    0.2870 H         1 UNK         0.0786 
    104 H104       25.4410   -2.5148   -0.2435 H         1 UNK         0.2977 
    105 H105       25.4905    1.6089   -4.6033 H         1 UNK         0.3127 
    106 H106       25.5260    4.2692   -5.5747 H         1 UNK         0.0770 
    107 H107       23.1772    2.3329   -5.1957 H         1 UNK         0.0814 
    108 H108       23.0390    4.0758   -5.3885 H         1 UNK         0.0814 
    109 H109       23.8355    3.4133   -3.9691 H         1 UNK         0.0814 
    110 H110       24.7300    1.2017   -7.2308 H         1 UNK         0.2983 
    111 H111       23.7679    2.3958   -9.6488 H         1 UNK         0.0947 
    112 H112       23.9639    0.0965  -10.5678 H         1 UNK         0.0806 
    113 H113       23.1823    0.0786   -8.9948 H         1 UNK         0.0806 
    114 H114       24.8643   -0.4210   -9.1515 H         1 UNK         0.0806 
    115 H115       26.9562    0.8297   -8.8967 H         1 UNK         0.3000 
    116 H116       28.4821    2.6887  -10.4403 H         1 UNK         0.0850 
    117 H117       29.2367    1.0429  -12.2307 H         1 UNK         0.0810 
    118 H118       27.5807    1.5706  -12.4484 H         1 UNK         0.0810 
    119 H119       27.9148   -0.0218  -11.7725 H         1 UNK         0.0810 
    120 H120       29.7155    2.7264   -8.5541 H         1 UNK         0.3040 
    121 H121       30.9744    0.3825   -7.4061 H         1 UNK         0.0766 
    122 H122       30.4732    2.4277   -6.0682 H         1 UNK         0.0812 
    123 H123       31.5878    3.3657   -7.0539 H         1 UNK         0.0812 
    124 H124       32.1859    2.0550   -6.0430 H         1 UNK         0.0812 
    125 H125       31.5557   -0.2350   -9.7784 H         1 UNK         0.3205 
    126 H126       33.8951    0.9220  -10.9918 H         1 UNK         0.0754 
    127 H127       33.8340   -1.1252  -12.4266 H         1 UNK         0.0769 
    128 H128       32.2469   -0.3849  -12.3000 H         1 UNK         0.0769 
    129 H129       32.6158   -1.8411  -11.3786 H         1 UNK         0.0769 
    130 H130       33.4046   -1.8941   -8.8677 H         1 UNK         0.2981 
    131 H131       34.6778   -3.0825   -7.5347 H         1 UNK         0.0541 
    132 H132       35.4809   -3.3009  -10.5013 H         1 UNK         0.3459 
    133 H133       37.0163   -4.1258  -10.3897 H         1 UNK         0.3459 
    134 H134       36.4587   -1.9171   -6.2119 H         1 UNK         0.0612 
    135 H135       36.4476   -0.5992   -7.3527 H         1 UNK         0.0612 
    136 H136       34.6222   -2.6844   -4.8137 H         1 UNK         0.0624 
    137 H137       35.0630   -1.3353   -3.7914 H         1 UNK         0.0624 
@<TRIPOS>BOND
     1    1    2 1    
     2    1   72 1    
     3    1   73 1    
     4    1   74 1    
     5    2    3 2    
     6    2    4 am   BACKBONE|DICT|INTERRES
     7    4    5 1    
     8    4   75 1    
     9    5    6 1    
    10    5   35 1    
    11    5   76 1    
    12    6    7 1    
    13    6   77 1    
    14    6   78 1    
    15    7    8 1    
    16    8    9 1    
    17    8   79 1    
    18    8   80 1    
    19    9   10 ar   
    20    9   14 ar   
    21   10   11 ar   
    22   10   81 1    
    23   11   12 ar   
    24   11   71 1    
    25   12   13 ar   
    26   12   82 1    
    27   13   14 ar   
    28   13   15 1    
    29   14   83 1    
    30   15   16 1    
    31   15   84 1    
    32   15   85 1    
    33   16   17 1    
    34   17   18 1    
    35   17   86 1    
    36   17   87 1    
    37   18   19 1    
    38   18   37 1    
    39   18   88 1    
    40   19   20 am   BACKBONE|DICT|INTERRES
    41   19   89 1    
    42   20   21 2    
    43   20   22 1    
    44   22   23 1    
    45   22   24 1    
    46   22   90 1    
    47   23   91 1    
    48   23   92 1    
    49   23   93 1    
    50   24   25 am   BACKBONE|DICT|INTERRES
    51   24   94 1    
    52   25   26 2    
    53   25   27 1    
    54   27   28 1    
    55   27   29 1    
    56   27   95 1    
    57   28   96 1    
    58   28   97 1    
    59   28   98 1    
    60   29   30 am   BACKBONE|DICT|INTERRES
    61   29   99 1    
    62   30   31 2    
    63   30   32 1    
    64   32   33 1    
    65   32   34 1    
    66   32  100 1    
    67   33  101 1    
    68   33  102 1    
    69   33  103 1    
    70   34   35 am   BACKBONE|DICT|INTERRES
    71   34  104 1    
    72   35   36 2    
    73   37   38 2    
    74   37   39 am   BACKBONE|DICT|INTERRES
    75   39   40 1    
    76   39  105 1    
    77   40   41 1    
    78   40   42 1    
    79   40  106 1    
    80   41  107 1    
    81   41  108 1    
    82   41  109 1    
    83   42   43 2    
    84   42   44 am   BACKBONE|DICT|INTERRES
    85   44   45 1    
    86   44  110 1    
    87   45   46 1    
    88   45   47 1    
    89   45  111 1    
    90   46  112 1    
    91   46  113 1    
    92   46  114 1    
    93   47   48 2    
    94   47   49 am   BACKBONE|DICT|INTERRES
    95   49   50 1    
    96   49  115 1    
    97   50   51 1    
    98   50   52 1    
    99   50  116 1    
   100   51  117 1    
   101   51  118 1    
   102   51  119 1    
   103   52   53 2    
   104   52   54 am   BACKBONE|DICT|INTERRES
   105   54   55 1    
   106   54  120 1    
   107   55   56 1    
   108   55   57 1    
   109   55  121 1    
   110   56  122 1    
   111   56  123 1    
   112   56  124 1    
   113   57   58 2    
   114   57   59 am   BACKBONE|DICT|INTERRES
   115   59   60 1    
   116   59  125 1    
   117   60   61 1    
   118   60   62 1    
   119   60  126 1    
   120   61  127 1    
   121   61  128 1    
   122   61  129 1    
   123   62   63 2    
   124   62   64 am   BACKBONE|DICT|INTERRES
   125   64   65 1    
   126   64  130 1    
   127   65   66 1    
   128   65   69 1    
   129   65  131 1    
   130   66   67 am   BACKBONE|DICT|INTERRES
   131   66   68 2    
   132   67  132 1    
   133   67  133 1    
   134   69   70 1    
   135   69  134 1    
   136   69  135 1    
   137   70   71 1    
   138   71  136 1    
   139   71  137 1    
@<TRIPOS>SUBSTRUCTURE
     1 UNK         1 GROUP             0       ****    0 ROOT    
