@<TRIPOS>MOLECULE
3R137
137   139    1
SMALL
USER_CHARGES


@<TRIPOS>ATOM
      1 CA         30.4868    0.8654   -2.1906 C.3       0 UNK        -0.2020 
      2 C          29.7612   -0.4589   -2.3664 C.2       0 UNK         0.4855 
      3 O          29.1450   -0.6856   -3.4047 O.2       0 UNK        -0.5197 
      4 N          29.8200   -1.3359   -1.3562 N.am      1 UNK        -0.4892 
      5 CA         29.1944   -2.6617   -1.3560 C.3       1 UNK         0.0835 
      6 C6         29.9796   -3.6404   -0.4433 C.3       12 UNK        -0.0855 
      7 S7         29.5481   -5.3898   -0.7435 S.3       12 UNK        -0.2931 
      8 C8         30.9387   -5.9566   -1.7752 C.3       12 UNK         0.0378 
      9 C9         30.9537   -5.2886   -3.1437 C.ar      12 UNK        -0.0802 
     10 C10        32.0168   -4.4576   -3.5135 C.ar      12 UNK        -0.0944 
     11 C11        32.0461   -3.8669   -4.7805 C.ar      12 UNK        -0.0787 
     12 C12        30.9966   -4.0991   -5.6728 C.ar      12 UNK        -0.0862 
     13 C13        29.9181   -4.9100   -5.3076 C.ar      12 UNK        -0.0733 
     14 C14        29.9103   -5.5154   -4.0476 C.ar      12 UNK        -0.0832 
     15 C15        28.7580   -5.1209   -6.2720 C.3       12 UNK         0.0240 
     16 S16        27.2329   -4.3014   -5.7009 S.3       12 UNK        -0.2522 
     17 C17        27.7464   -2.5532   -5.6313 C.3       12 UNK        -0.0967 
     18 CA         27.0622   -1.6761   -6.6994 C.3       5 UNK         0.0660 
     19 N          25.6086   -1.6257   -6.5209 N.am      5 UNK        -0.4015 
     20 C          24.7422   -1.0493   -7.3640 C.2       4 UNK         0.4946 
     21 O          25.0721   -0.4937   -8.4119 O.2       4 UNK        -0.5353 
     22 CA         23.2649   -1.0616   -6.9407 C.3       4 UNK         0.0277 
     23 CB         22.6379   -2.4437   -7.1854 C.3       4 UNK        -0.1981 
     24 N          23.0949   -0.6779   -5.5362 N.am      4 UNK        -0.4209 
     25 C          23.2757    0.5676   -5.0727 C.2       3 UNK         0.4942 
     26 O          23.5232    1.5361   -5.7914 O.2       3 UNK        -0.5208 
     27 CA         23.1942    0.7657   -3.5465 C.3       3 UNK         0.0250 
     28 CB         21.7409    1.0178   -3.1135 C.3       3 UNK        -0.1990 
     29 N          23.7597   -0.3351   -2.7523 N.am      3 UNK        -0.4232 
     30 C          25.0242   -0.7698   -2.8429 C.2       2 UNK         0.4993 
     31 O          25.8334   -0.3366   -3.6634 O.2       2 UNK        -0.5286 
     32 CA         25.4508   -1.8945   -1.8935 C.3       2 UNK         0.0209 
     33 CB         24.7958   -3.2313   -2.2914 C.3       2 UNK        -0.1931 
     34 N          26.9051   -2.0292   -1.9523 N.am      2 UNK        -0.4546 
     35 C          27.6909   -2.5543   -1.0089 C.2       1 UNK         0.5154 
     36 O          27.2729   -2.9184    0.0926 O.2       1 UNK        -0.5181 
     37 C          27.6890   -0.2689   -6.7220 C.2       5 UNK         0.5014 
     38 O          28.5527   -0.0101   -7.5595 O.2       5 UNK        -0.5248 
     39 N          27.2047    0.6307   -5.8564 N.am      6 UNK        -0.4434 
     40 CA         27.5954    2.0394   -5.7865 C.3       6 UNK         0.0363 
     41 CB         26.9119    2.6929   -4.5757 C.3       6 UNK        -0.1936 
     42 C          27.3005    2.8374   -7.0722 C.2       6 UNK         0.5081 
     43 O          27.9587    3.8504   -7.3074 O.2       6 UNK        -0.5248 
     44 N          26.3407    2.3737   -7.8837 N.am      7 UNK        -0.4718 
     45 CA         26.0562    2.9124   -9.2120 C.3       7 UNK         0.0273 
     46 CB         24.5433    2.8444   -9.4801 C.3       7 UNK        -0.1935 
     47 C          26.8411    2.1591  -10.2982 C.2       7 UNK         0.5018 
     48 O          27.4429    2.8016  -11.1590 O.2       7 UNK        -0.5186 
     49 N          26.7992    0.8192  -10.2586 N.am      8 UNK        -0.4240 
     50 CA         27.3528   -0.0602  -11.2916 C.3       8 UNK         0.0235 
     51 CB         26.7570   -1.4690  -11.1317 C.3       8 UNK        -0.2000 
     52 C          28.8890   -0.1276  -11.3129 C.2       8 UNK         0.4941 
     53 O          29.4757   -0.0699  -12.3946 O.2       8 UNK        -0.5273 
     54 N          29.5050   -0.2821  -10.1354 N.am      9 UNK        -0.4262 
     55 CA         30.9481   -0.4652   -9.9547 C.3       9 UNK         0.0264 
     56 CB         31.1898   -1.7404   -9.1276 C.3       9 UNK        -0.1955 
     57 C          31.6015    0.7345   -9.2553 C.2       9 UNK         0.5031 
     58 O          32.7772    1.0039   -9.5089 O.2       9 UNK        -0.5390 
     59 N          30.8491    1.4132   -8.3769 N.am      10 UNK        -0.4204 
     60 CA         31.2510    2.5118   -7.4914 C.3       10 UNK         0.0237 
     61 CB         31.8051    3.7276   -8.2630 C.3       10 UNK        -0.1985 
     62 C          32.1884    2.0414   -6.3695 C.2       10 UNK         0.4970 
     63 O          31.7872    2.0824   -5.2078 O.2       10 UNK        -0.4914 
     64 N          33.3938    1.5999   -6.7530 N.am      11 UNK        -0.4285 
     65 CA         34.4578    0.9877   -5.9353 C.3       11 UNK         0.1007 
     66 C          34.8360    1.6834   -4.5900 C.2       11 UNK         0.5703 
     67 N          34.6217    2.9854   -4.4456 N.am      11 UNK        -0.7361 
     68 O          35.3767    1.0548   -3.6827 O.2       11 UNK        -0.4986 
     69 C69        34.3446   -0.5630   -5.8665 C.3       12 UNK        -0.0947 
     70 S70        32.8607   -1.2288   -5.0415 S.3       12 UNK        -0.2240 
     71 C71        33.2224   -3.0031   -5.2060 C.3       12 UNK         0.0194 
     72 H72        31.3928    0.8735   -2.7965 H         1 UNK         0.0906 
     73 H73        29.8527    1.6884   -2.5199 H         1 UNK         0.0906 
     74 H74        30.7661    1.0444   -1.1527 H         1 UNK         0.0906 
     75 H75        30.3089   -1.0829   -0.5090 H         1 UNK         0.3140 
     76 H76        29.2545   -3.0563   -2.3738 H         1 UNK         0.1085 
     77 H77        31.0518   -3.5207   -0.6076 H         1 UNK         0.0836 
     78 H78        29.8183   -3.4111    0.6117 H         1 UNK         0.0836 
     79 H79        31.8760   -5.7861   -1.2431 H         1 UNK         0.0731 
     80 H80        30.8581   -7.0360   -1.9105 H         1 UNK         0.0731 
     81 H81        32.8287   -4.2796   -2.8216 H         1 UNK         0.1312 
     82 H82        31.0171   -3.6362   -6.6496 H         1 UNK         0.1406 
     83 H83        29.0803   -6.1479   -3.7622 H         1 UNK         0.1631 
     84 H84        28.5673   -6.1897   -6.3784 H         1 UNK         0.0717 
     85 H85        29.0068   -4.7527   -7.2687 H         1 UNK         0.0717 
     86 H86        27.5049   -2.1878   -4.6359 H         1 UNK         0.0934 
     87 H87        28.8303   -2.4745   -5.7159 H         1 UNK         0.0934 
     88 H88        27.2532   -2.1238   -7.6767 H         1 UNK         0.0739 
     89 H89        25.2563   -2.0325   -5.6685 H         1 UNK         0.3093 
     90 H90        22.7367   -0.3346   -7.5619 H         1 UNK         0.0818 
     91 H91        21.5707   -2.4389   -6.9627 H         1 UNK         0.0819 
     92 H92        22.7472   -2.7401   -8.2297 H         1 UNK         0.0819 
     93 H93        23.1042   -3.2192   -6.5766 H         1 UNK         0.0819 
     94 H94        22.8738   -1.4095   -4.8767 H         1 UNK         0.3041 
     95 H95        23.7758    1.6596   -3.3112 H         1 UNK         0.0784 
     96 H96        21.3044    1.8454   -3.6749 H         1 UNK         0.0793 
     97 H97        21.1109    0.1431   -3.2799 H         1 UNK         0.0793 
     98 H98        21.6806    1.2801   -2.0570 H         1 UNK         0.0793 
     99 H99        23.1504   -0.7507   -2.0620 H         1 UNK         0.3024 
    100 H100       25.1535   -1.6179   -0.8794 H         1 UNK         0.1171 
    101 H101       23.7076   -3.1679   -2.2599 H         1 UNK         0.0786 
    102 H102       25.0880   -4.0327   -1.6124 H         1 UNK         0.0786 
    103 H103       25.0792   -3.5332   -3.3006 H         1 UNK         0.0786 
    104 H104       27.3412   -1.5978   -2.7638 H         1 UNK         0.2977 
    105 H105       26.5618    0.3047   -5.1336 H         1 UNK         0.3127 
    106 H106       28.6730    2.0634   -5.6171 H         1 UNK         0.0770 
    107 H107       25.8258    2.6746   -4.6704 H         1 UNK         0.0814 
    108 H108       27.2151    3.7353   -4.4705 H         1 UNK         0.0814 
    109 H109       27.1767    2.1820   -3.6496 H         1 UNK         0.0814 
    110 H110       25.8452    1.5325   -7.6164 H         1 UNK         0.2983 
    111 H111       26.3523    3.9630   -9.2561 H         1 UNK         0.0947 
    112 H112       24.3028    3.2555  -10.4614 H         1 UNK         0.0806 
    113 H113       23.9863    3.4207   -8.7412 H         1 UNK         0.0806 
    114 H114       24.1671    1.8213   -9.4540 H         1 UNK         0.0806 
    115 H115       26.2452    0.3706   -9.5310 H         1 UNK         0.3000 
    116 H116       27.0318    0.3273  -12.2611 H         1 UNK         0.0850 
    117 H117       27.1294   -2.1423  -11.9050 H         1 UNK         0.0810 
    118 H118       25.6700   -1.4505  -11.2139 H         1 UNK         0.0810 
    119 H119       27.0093   -1.9080  -10.1660 H         1 UNK         0.0810 
    120 H120       28.9464   -0.2736   -9.2839 H         1 UNK         0.3040 
    121 H121       31.4413   -0.5887  -10.9211 H         1 UNK         0.0766 
    122 H122       32.2567   -1.9163   -8.9822 H         1 UNK         0.0812 
    123 H123       30.7804   -2.6194   -9.6254 H         1 UNK         0.0812 
    124 H124       30.7346   -1.6721   -8.1386 H         1 UNK         0.0812 
    125 H125       29.9302    1.0246   -8.1722 H         1 UNK         0.3205 
    126 H126       30.3375    2.8456   -7.0044 H         1 UNK         0.0754 
    127 H127       32.0054    4.5565   -7.5831 H         1 UNK         0.0769 
    128 H128       31.0851    4.0827   -9.0005 H         1 UNK         0.0769 
    129 H129       32.7361    3.5076   -8.7851 H         1 UNK         0.0769 
    130 H130       33.5557    1.5786   -7.7546 H         1 UNK         0.2981 
    131 H131       35.3516    1.1678   -6.5334 H         1 UNK         0.0541 
    132 H132       34.1709    3.5117   -5.1762 H         1 UNK         0.3459 
    133 H133       34.8803    3.4355   -3.5821 H         1 UNK         0.3459 
    134 H134       35.2272   -0.9857   -5.3834 H         1 UNK         0.0612 
    135 H135       34.3548   -0.9593   -6.8832 H         1 UNK         0.0612 
    136 H136       33.4761   -3.2252   -6.2437 H         1 UNK         0.0624 
    137 H137       34.1068   -3.2441   -4.6142 H         1 UNK         0.0624 
@<TRIPOS>BOND
     1    1    2 1    
     2    1   72 1    
     3    1   73 1    
     4    1   74 1    
     5    2    3 2    
     6    2    4 am   BACKBONE|DICT|INTERRES
     7    4    5 1    
     8    4   75 1    
     9    5    6 1    
    10    5   35 1    
    11    5   76 1    
    12    6    7 1    
    13    6   77 1    
    14    6   78 1    
    15    7    8 1    
    16    8    9 1    
    17    8   79 1    
    18    8   80 1    
    19    9   10 ar   
    20    9   14 ar   
    21   10   11 ar   
    22   10   81 1    
    23   11   12 ar   
    24   11   71 1    
    25   12   13 ar   
    26   12   82 1    
    27   13   14 ar   
    28   13   15 1    
    29   14   83 1    
    30   15   16 1    
    31   15   84 1    
    32   15   85 1    
    33   16   17 1    
    34   17   18 1    
    35   17   86 1    
    36   17   87 1    
    37   18   19 1    
    38   18   37 1    
    39   18   88 1    
    40   19   20 am   BACKBONE|DICT|INTERRES
    41   19   89 1    
    42   20   21 2    
    43   20   22 1    
    44   22   23 1    
    45   22   24 1    
    46   22   90 1    
    47   23   91 1    
    48   23   92 1    
    49   23   93 1    
    50   24   25 am   BACKBONE|DICT|INTERRES
    51   24   94 1    
    52   25   26 2    
    53   25   27 1    
    54   27   28 1    
    55   27   29 1    
    56   27   95 1    
    57   28   96 1    
    58   28   97 1    
    59   28   98 1    
    60   29   30 am   BACKBONE|DICT|INTERRES
    61   29   99 1    
    62   30   31 2    
    63   30   32 1    
    64   32   33 1    
    65   32   34 1    
    66   32  100 1    
    67   33  101 1    
    68   33  102 1    
    69   33  103 1    
    70   34   35 am   BACKBONE|DICT|INTERRES
    71   34  104 1    
    72   35   36 2    
    73   37   38 2    
    74   37   39 am   BACKBONE|DICT|INTERRES
    75   39   40 1    
    76   39  105 1    
    77   40   41 1    
    78   40   42 1    
    79   40  106 1    
    80   41  107 1    
    81   41  108 1    
    82   41  109 1    
    83   42   43 2    
    84   42   44 am   BACKBONE|DICT|INTERRES
    85   44   45 1    
    86   44  110 1    
    87   45   46 1    
    88   45   47 1    
    89   45  111 1    
    90   46  112 1    
    91   46  113 1    
    92   46  114 1    
    93   47   48 2    
    94   47   49 am   BACKBONE|DICT|INTERRES
    95   49   50 1    
    96   49  115 1    
    97   50   51 1    
    98   50   52 1    
    99   50  116 1    
   100   51  117 1    
   101   51  118 1    
   102   51  119 1    
   103   52   53 2    
   104   52   54 am   BACKBONE|DICT|INTERRES
   105   54   55 1    
   106   54  120 1    
   107   55   56 1    
   108   55   57 1    
   109   55  121 1    
   110   56  122 1    
   111   56  123 1    
   112   56  124 1    
   113   57   58 2    
   114   57   59 am   BACKBONE|DICT|INTERRES
   115   59   60 1    
   116   59  125 1    
   117   60   61 1    
   118   60   62 1    
   119   60  126 1    
   120   61  127 1    
   121   61  128 1    
   122   61  129 1    
   123   62   63 2    
   124   62   64 am   BACKBONE|DICT|INTERRES
   125   64   65 1    
   126   64  130 1    
   127   65   66 1    
   128   65   69 1    
   129   65  131 1    
   130   66   67 am   BACKBONE|DICT|INTERRES
   131   66   68 2    
   132   67  132 1    
   133   67  133 1    
   134   69   70 1    
   135   69  134 1    
   136   69  135 1    
   137   70   71 1    
   138   71  136 1    
   139   71  137 1    
@<TRIPOS>SUBSTRUCTURE
     1 UNK         1 GROUP             0       ****    0 ROOT    
