@<TRIPOS>MOLECULE
3R137
137   139    1
SMALL
USER_CHARGES


@<TRIPOS>ATOM
      1 CA         27.3472   -6.4122   -5.5474 C.3       0 UNK        -0.2020 
      2 C          27.1639   -5.6658   -4.2353 C.2       0 UNK         0.4855 
      3 O          26.0448   -5.5807   -3.7286 O.2       0 UNK        -0.5197 
      4 N          28.2532   -5.1233   -3.6793 N.am      1 UNK        -0.4892 
      5 CA         28.2509   -4.3547   -2.4337 C.3       1 UNK         0.0835 
      6 C6         29.6765   -4.2721   -1.8397 C.3       12 UNK        -0.0855 
      7 S7         29.6899   -3.6133   -0.1345 S.3       12 UNK        -0.2931 
      8 C8         31.4093   -3.0399    0.0475 C.3       12 UNK         0.0378 
      9 C9         31.8112   -2.0246   -1.0148 C.ar      12 UNK        -0.0802 
     10 C10        32.7906   -2.3541   -1.9545 C.ar      12 UNK        -0.0944 
     11 C11        33.1817   -1.4350   -2.9318 C.ar      12 UNK        -0.0787 
     12 C12        32.5907   -0.1679   -2.9566 C.ar      12 UNK        -0.0862 
     13 C13        31.6116    0.1795   -2.0170 C.ar      12 UNK        -0.0733 
     14 C14        31.2243   -0.7562   -1.0509 C.ar      12 UNK        -0.0832 
     15 C15        31.0071    1.5801   -2.0014 C.3       12 UNK         0.0240 
     16 S16        30.3636    2.1137   -3.6197 S.3       12 UNK        -0.2522 
     17 C17        28.9358    1.0024   -3.8321 C.3       12 UNK        -0.0967 
     18 CA         28.4957    0.9369   -5.3135 C.3       5 UNK         0.0660 
     19 N          27.8567   -0.3345   -5.6533 N.am      5 UNK        -0.4015 
     20 C          27.5546   -0.7172   -6.9006 C.2       4 UNK         0.4946 
     21 O          27.8864   -0.0807   -7.8989 O.2       4 UNK        -0.5353 
     22 CA         26.7336   -2.0047   -7.0656 C.3       4 UNK         0.0277 
     23 CB         27.6437   -3.2347   -7.1578 C.3       4 UNK        -0.1981 
     24 N          25.7703   -2.1849   -5.9794 N.am      4 UNK        -0.4209 
     25 C          24.6407   -1.4751   -5.8553 C.2       3 UNK         0.4942 
     26 O          24.2635   -0.6395   -6.6760 O.2       3 UNK        -0.5208 
     27 CA         23.8175   -1.7092   -4.5777 C.3       3 UNK         0.0250 
     28 CB         22.9595   -2.9777   -4.7089 C.3       3 UNK        -0.1990 
     29 N          24.6522   -1.8022   -3.3766 N.am      3 UNK        -0.4232 
     30 C          25.3976   -0.7979   -2.8930 C.2       2 UNK         0.4993 
     31 O          25.4365    0.3271   -3.3886 O.2       2 UNK        -0.5286 
     32 CA         26.2954   -1.1099   -1.6852 C.3       2 UNK         0.0209 
     33 CB         25.5276   -0.8943   -0.3719 C.3       2 UNK        -0.1931 
     34 N          26.8788   -2.4557   -1.6973 N.am      2 UNK        -0.4546 
     35 C          27.6476   -2.9567   -2.6748 C.2       1 UNK         0.5154 
     36 O          27.8941   -2.3565   -3.7236 O.2       1 UNK        -0.5181 
     37 C          27.6230    2.1430   -5.7268 C.2       5 UNK         0.5014 
     38 O          28.1268    3.0654   -6.3708 O.2       5 UNK        -0.5248 
     39 N          26.3205    2.0843   -5.4092 N.am      6 UNK        -0.4434 
     40 CA         25.3100    3.0561   -5.8363 C.3       6 UNK         0.0363 
     41 CB         23.9674    2.7367   -5.1606 C.3       6 UNK        -0.1936 
     42 C          25.1444    3.1257   -7.3647 C.2       6 UNK         0.5081 
     43 O          24.9537    4.2177   -7.9015 O.2       6 UNK        -0.5248 
     44 N          25.2732    1.9816   -8.0506 N.am      7 UNK        -0.4718 
     45 CA         25.2742    1.8564   -9.5119 C.3       7 UNK         0.0273 
     46 CB         24.8966    0.4133   -9.8924 C.3       7 UNK        -0.1935 
     47 C          26.6108    2.3040  -10.1446 C.2       7 UNK         0.5018 
     48 O          27.2140    1.5513  -10.9113 O.2       7 UNK        -0.5186 
     49 N          27.0314    3.5353   -9.8229 N.am      8 UNK        -0.4240 
     50 CA         28.2130    4.2443  -10.3251 C.3       8 UNK         0.0235 
     51 CB         28.0399    4.5884  -11.8207 C.3       8 UNK        -0.2000 
     52 C          29.5450    3.5286  -10.0217 C.2       8 UNK         0.4941 
     53 O          30.3935    3.4162  -10.9092 O.2       8 UNK        -0.5273 
     54 N          29.7160    3.0926   -8.7637 N.am      9 UNK        -0.4262 
     55 CA         30.9336    2.4989   -8.1963 C.3       9 UNK         0.0264 
     56 CB         32.0667    3.5458   -8.1245 C.3       9 UNK        -0.1955 
     57 C          31.3679    1.1890   -8.8838 C.2       9 UNK         0.5031 
     58 O          32.5638    0.9828   -9.1024 O.2       9 UNK        -0.5390 
     59 N          30.4024    0.3146   -9.2043 N.am      10 UNK        -0.4204 
     60 CA         30.6587   -0.9834   -9.8366 C.3       10 UNK         0.0237 
     61 CB         29.3811   -1.4920  -10.5251 C.3       10 UNK        -0.1985 
     62 C          31.2256   -2.0352   -8.8650 C.2       10 UNK         0.4970 
     63 O          31.8518   -2.9866   -9.3336 O.2       10 UNK        -0.4914 
     64 N          31.0120   -1.8504   -7.5511 N.am      11 UNK        -0.4285 
     65 CA         31.5448   -2.6479   -6.4261 C.3       11 UNK         0.1007 
     66 C          30.9947   -4.1043   -6.3269 C.2       11 UNK         0.5703 
     67 N          30.8629   -4.8319   -7.4266 N.am      11 UNK        -0.7361 
     68 O          30.6432   -4.5662   -5.2436 O.2       11 UNK        -0.4986 
     69 C69        33.0988   -2.5859   -6.3878 C.3       12 UNK        -0.0947 
     70 S70        33.8781   -3.2840   -4.8935 S.3       12 UNK        -0.2240 
     71 C71        34.2854   -1.8013   -3.9148 C.3       12 UNK         0.0194 
     72 H72        26.5389   -6.1712   -6.2369 H         1 UNK         0.0906 
     73 H73        28.2920   -6.1588   -6.0279 H         1 UNK         0.0906 
     74 H74        27.3310   -7.4871   -5.3704 H         1 UNK         0.0906 
     75 H75        29.1352   -5.1241   -4.1877 H         1 UNK         0.3140 
     76 H76        27.6159   -4.8870   -1.7216 H         1 UNK         0.1085 
     77 H77        30.1273   -5.2654   -1.8106 H         1 UNK         0.0836 
     78 H78        30.3153   -3.6726   -2.4904 H         1 UNK         0.0836 
     79 H79        32.0714   -3.9070    0.0266 H         1 UNK         0.0731 
     80 H80        31.5286   -2.5901    1.0342 H         1 UNK         0.0731 
     81 H81        33.2558   -3.3302   -1.9270 H         1 UNK         0.1312 
     82 H82        32.9033    0.5574   -3.6955 H         1 UNK         0.1406 
     83 H83        30.4733   -0.4989   -0.3161 H         1 UNK         0.1631 
     84 H84        31.7770    2.2849   -1.6849 H         1 UNK         0.0717 
     85 H85        30.2043    1.6524   -1.2658 H         1 UNK         0.0717 
     86 H86        29.2348    0.0104   -3.4893 H         1 UNK         0.0934 
     87 H87        28.1217    1.3185   -3.1773 H         1 UNK         0.0934 
     88 H88        29.3969    0.9644   -5.9249 H         1 UNK         0.0739 
     89 H89        27.6503   -0.9704   -4.8853 H         1 UNK         0.3093 
     90 H90        26.1834   -1.9274   -8.0048 H         1 UNK         0.0818 
     91 H91        27.0702   -4.1264   -7.4065 H         1 UNK         0.0819 
     92 H92        28.3954   -3.1150   -7.9372 H         1 UNK         0.0819 
     93 H93        28.1669   -3.4168   -6.2198 H         1 UNK         0.0819 
     94 H94        26.0338   -2.8117   -5.2318 H         1 UNK         0.3041 
     95 H95        23.1490   -0.8542   -4.4552 H         1 UNK         0.0784 
     96 H96        22.3248   -2.9292   -5.5950 H         1 UNK         0.0793 
     97 H97        23.5727   -3.8761   -4.7949 H         1 UNK         0.0793 
     98 H98        22.3019   -3.1019   -3.8482 H         1 UNK         0.0793 
     99 H99        24.6938   -2.6981   -2.9118 H         1 UNK         0.3024 
    100 H100       27.1252   -0.4011   -1.7113 H         1 UNK         0.1171 
    101 H101       25.1006    0.1090   -0.3296 H         1 UNK         0.0786 
    102 H102       26.1826   -1.0010    0.4931 H         1 UNK         0.0786 
    103 H103       24.7060   -1.6033   -0.2617 H         1 UNK         0.0786 
    104 H104       26.7457   -3.0081   -0.8620 H         1 UNK         0.2977 
    105 H105       25.9919    1.3219   -4.8175 H         1 UNK         0.3127 
    106 H106       25.6376    4.0408   -5.4965 H         1 UNK         0.0770 
    107 H107       23.6021    1.7472   -5.4377 H         1 UNK         0.0814 
    108 H108       23.2032    3.4603   -5.4473 H         1 UNK         0.0814 
    109 H109       24.0532    2.7681   -4.0743 H         1 UNK         0.0814 
    110 H110       25.4129    1.1247   -7.5293 H         1 UNK         0.2983 
    111 H111       24.4992    2.5135   -9.9126 H         1 UNK         0.0947 
    112 H112       24.7805    0.3121  -10.9721 H         1 UNK         0.0806 
    113 H113       23.9542    0.1121   -9.4347 H         1 UNK         0.0806 
    114 H114       25.6638   -0.2950   -9.5816 H         1 UNK         0.0806 
    115 H115       26.4523    4.0476   -9.1631 H         1 UNK         0.3000 
    116 H116       28.2524    5.1875   -9.7781 H         1 UNK         0.0850 
    117 H117       28.8558    5.2202  -12.1741 H         1 UNK         0.0810 
    118 H118       27.1118    5.1315  -11.9988 H         1 UNK         0.0810 
    119 H119       28.0298    3.6929  -12.4431 H         1 UNK         0.0810 
    120 H120       28.9530    3.2051   -8.0988 H         1 UNK         0.3040 
    121 H121       30.6942    2.2355   -7.1682 H         1 UNK         0.0766 
    122 H122       31.7415    4.4467   -7.6043 H         1 UNK         0.0812 
    123 H123       32.4143    3.8366   -9.1163 H         1 UNK         0.0812 
    124 H124       32.9274    3.1540   -7.5810 H         1 UNK         0.0812 
    125 H125       29.4347    0.5152   -8.9599 H         1 UNK         0.3205 
    126 H126       31.4096   -0.8348  -10.6158 H         1 UNK         0.0754 
    127 H127       29.5693   -2.4264  -11.0553 H         1 UNK         0.0769 
    128 H128       29.0154   -0.7717  -11.2576 H         1 UNK         0.0769 
    129 H129       28.5759   -1.6781   -9.8165 H         1 UNK         0.0769 
    130 H130       30.4507   -1.0558   -7.2865 H         1 UNK         0.2981 
    131 H131       31.1855   -2.1355   -5.5319 H         1 UNK         0.0541 
    132 H132       31.1739   -4.4412   -8.3097 H         1 UNK         0.3459 
    133 H133       30.5105   -5.7731   -7.3746 H         1 UNK         0.3459 
    134 H134       33.5159   -3.1209   -7.2422 H         1 UNK         0.0612 
    135 H135       33.4272   -1.5524   -6.5046 H         1 UNK         0.0612 
    136 H136       35.1937   -2.0068   -3.3470 H         1 UNK         0.0624 
    137 H137       34.5255   -0.9662   -4.5742 H         1 UNK         0.0624 
@<TRIPOS>BOND
     1    1    2 1    
     2    1   72 1    
     3    1   73 1    
     4    1   74 1    
     5    2    3 2    
     6    2    4 am   BACKBONE|DICT|INTERRES
     7    4    5 1    
     8    4   75 1    
     9    5    6 1    
    10    5   35 1    
    11    5   76 1    
    12    6    7 1    
    13    6   77 1    
    14    6   78 1    
    15    7    8 1    
    16    8    9 1    
    17    8   79 1    
    18    8   80 1    
    19    9   10 ar   
    20    9   14 ar   
    21   10   11 ar   
    22   10   81 1    
    23   11   12 ar   
    24   11   71 1    
    25   12   13 ar   
    26   12   82 1    
    27   13   14 ar   
    28   13   15 1    
    29   14   83 1    
    30   15   16 1    
    31   15   84 1    
    32   15   85 1    
    33   16   17 1    
    34   17   18 1    
    35   17   86 1    
    36   17   87 1    
    37   18   19 1    
    38   18   37 1    
    39   18   88 1    
    40   19   20 am   BACKBONE|DICT|INTERRES
    41   19   89 1    
    42   20   21 2    
    43   20   22 1    
    44   22   23 1    
    45   22   24 1    
    46   22   90 1    
    47   23   91 1    
    48   23   92 1    
    49   23   93 1    
    50   24   25 am   BACKBONE|DICT|INTERRES
    51   24   94 1    
    52   25   26 2    
    53   25   27 1    
    54   27   28 1    
    55   27   29 1    
    56   27   95 1    
    57   28   96 1    
    58   28   97 1    
    59   28   98 1    
    60   29   30 am   BACKBONE|DICT|INTERRES
    61   29   99 1    
    62   30   31 2    
    63   30   32 1    
    64   32   33 1    
    65   32   34 1    
    66   32  100 1    
    67   33  101 1    
    68   33  102 1    
    69   33  103 1    
    70   34   35 am   BACKBONE|DICT|INTERRES
    71   34  104 1    
    72   35   36 2    
    73   37   38 2    
    74   37   39 am   BACKBONE|DICT|INTERRES
    75   39   40 1    
    76   39  105 1    
    77   40   41 1    
    78   40   42 1    
    79   40  106 1    
    80   41  107 1    
    81   41  108 1    
    82   41  109 1    
    83   42   43 2    
    84   42   44 am   BACKBONE|DICT|INTERRES
    85   44   45 1    
    86   44  110 1    
    87   45   46 1    
    88   45   47 1    
    89   45  111 1    
    90   46  112 1    
    91   46  113 1    
    92   46  114 1    
    93   47   48 2    
    94   47   49 am   BACKBONE|DICT|INTERRES
    95   49   50 1    
    96   49  115 1    
    97   50   51 1    
    98   50   52 1    
    99   50  116 1    
   100   51  117 1    
   101   51  118 1    
   102   51  119 1    
   103   52   53 2    
   104   52   54 am   BACKBONE|DICT|INTERRES
   105   54   55 1    
   106   54  120 1    
   107   55   56 1    
   108   55   57 1    
   109   55  121 1    
   110   56  122 1    
   111   56  123 1    
   112   56  124 1    
   113   57   58 2    
   114   57   59 am   BACKBONE|DICT|INTERRES
   115   59   60 1    
   116   59  125 1    
   117   60   61 1    
   118   60   62 1    
   119   60  126 1    
   120   61  127 1    
   121   61  128 1    
   122   61  129 1    
   123   62   63 2    
   124   62   64 am   BACKBONE|DICT|INTERRES
   125   64   65 1    
   126   64  130 1    
   127   65   66 1    
   128   65   69 1    
   129   65  131 1    
   130   66   67 am   BACKBONE|DICT|INTERRES
   131   66   68 2    
   132   67  132 1    
   133   67  133 1    
   134   69   70 1    
   135   69  134 1    
   136   69  135 1    
   137   70   71 1    
   138   71  136 1    
   139   71  137 1    
@<TRIPOS>SUBSTRUCTURE
     1 UNK         1 GROUP             0       ****    0 ROOT    
