@<TRIPOS>MOLECULE
3R137
137   139    1
SMALL
USER_CHARGES


@<TRIPOS>ATOM
      1 CA         25.1131   -5.8594   -3.5303 C.3       0 UNK        -0.2020 
      2 C          25.8778   -5.5912   -2.2441 C.2       0 UNK         0.4855 
      3 O          25.3192   -5.7499   -1.1585 O.2       0 UNK        -0.5197 
      4 N          27.1564   -5.2061   -2.3553 N.am      1 UNK        -0.4892 
      5 CA         28.0648   -4.9967   -1.2173 C.3       1 UNK         0.0835 
      6 C6         29.5557   -4.9461   -1.6421 C.3       12 UNK        -0.0855 
      7 S7         30.0306   -6.2947   -2.7834 S.3       12 UNK        -0.2931 
      8 C8         31.1421   -5.4500   -3.9592 C.3       12 UNK         0.0378 
      9 C9         30.4834   -4.2660   -4.6568 C.ar      12 UNK        -0.0802 
     10 C10        30.9089   -2.9628   -4.3716 C.ar      12 UNK        -0.0944 
     11 C11        30.3117   -1.8670   -4.9994 C.ar      12 UNK        -0.0787 
     12 C12        29.2964   -2.0879   -5.9303 C.ar      12 UNK        -0.0862 
     13 C13        28.8544   -3.3808   -6.2233 C.ar      12 UNK        -0.0733 
     14 C14        29.4561   -4.4699   -5.5855 C.ar      12 UNK        -0.0832 
     15 C15        27.7396   -3.5894   -7.2407 C.3       12 UNK         0.0240 
     16 S16        26.1115   -3.9057   -6.4773 S.3       12 UNK        -0.2522 
     17 C17        25.8786   -2.4941   -5.3405 C.3       12 UNK        -0.0967 
     18 CA         25.0160   -1.3333   -5.8968 C.3       5 UNK         0.0660 
     19 N          24.6673   -0.3873   -4.8317 N.am      5 UNK        -0.4015 
     20 C          23.7284    0.5681   -4.9293 C.2       4 UNK         0.4946 
     21 O          22.9856    0.6949   -5.9036 O.2       4 UNK        -0.5353 
     22 CA         23.5689    1.5491   -3.7499 C.3       4 UNK         0.0277 
     23 CB         22.3443    1.1705   -2.9005 C.3       4 UNK        -0.1981 
     24 N          24.7442    1.6280   -2.8803 N.am      4 UNK        -0.4209 
     25 C          25.9215    2.1736   -3.2174 C.2       3 UNK         0.4942 
     26 O          26.1258    2.7622   -4.2790 O.2       3 UNK        -0.5208 
     27 CA         27.0828    2.0078   -2.2184 C.3       3 UNK         0.0250 
     28 CB         27.2973    3.3058   -1.4239 C.3       3 UNK        -0.1990 
     29 N          26.9478    0.8810   -1.2843 N.am      3 UNK        -0.4232 
     30 C          26.8438   -0.4049   -1.6452 C.2       2 UNK         0.4993 
     31 O          26.7620   -0.7813   -2.8181 O.2       2 UNK        -0.5286 
     32 CA         26.7602   -1.4342   -0.5146 C.3       2 UNK         0.0209 
     33 CB         25.3366   -1.4978    0.0677 C.3       2 UNK        -0.1931 
     34 N          27.1223   -2.7363   -1.0615 N.am      2 UNK        -0.4546 
     35 C          27.7090   -3.7380   -0.3972 C.2       1 UNK         0.5154 
     36 O          27.9808   -3.6955    0.8039 O.2       1 UNK        -0.5181 
     37 C          25.7053   -0.5954   -7.0620 C.2       5 UNK         0.5014 
     38 O          25.2866   -0.7414   -8.2111 O.2       5 UNK        -0.5248 
     39 N          26.7359    0.1952   -6.7235 N.am      6 UNK        -0.4434 
     40 CA         27.5601    1.0899   -7.5504 C.3       6 UNK         0.0363 
     41 CB         26.7304    2.2909   -8.0370 C.3       6 UNK        -0.1936 
     42 C          28.3348    0.4667   -8.7269 C.2       6 UNK         0.5081 
     43 O          29.4898    0.8376   -8.9364 O.2       6 UNK        -0.5248 
     44 N          27.7042   -0.4469   -9.4700 N.am      7 UNK        -0.4718 
     45 CA         28.1072   -0.9853  -10.7753 C.3       7 UNK         0.0273 
     46 CB         27.0707   -2.0373  -11.2040 C.3       7 UNK        -0.1935 
     47 C          29.5286   -1.5663  -10.8972 C.2       7 UNK         0.5018 
     48 O          30.0198   -1.6856  -12.0205 O.2       7 UNK        -0.5186 
     49 N          30.1629   -1.9238   -9.7729 N.am      8 UNK        -0.4240 
     50 CA         31.5278   -2.4492   -9.7342 C.3       8 UNK         0.0235 
     51 CB         31.8137   -3.0547   -8.3509 C.3       8 UNK        -0.2000 
     52 C          32.6003   -1.4073  -10.1006 C.2       8 UNK         0.4941 
     53 O          33.5947   -1.7833  -10.7237 O.2       8 UNK        -0.5273 
     54 N          32.4039   -0.1379   -9.7088 N.am      9 UNK        -0.4262 
     55 CA         33.4076    0.9239   -9.8783 C.3       9 UNK         0.0264 
     56 CB         34.5412    0.7372   -8.8432 C.3       9 UNK        -0.1955 
     57 C          32.8336    2.3531   -9.8215 C.2       9 UNK         0.5031 
     58 O          33.6116    3.2915   -9.6409 O.2       9 UNK        -0.5390 
     59 N          31.5047    2.5119   -9.9369 N.am      10 UNK        -0.4204 
     60 CA         30.7373    3.7360   -9.6425 C.3       10 UNK         0.0237 
     61 CB         31.0836    4.8824  -10.6171 C.3       10 UNK        -0.1985 
     62 C          30.8575    4.1337   -8.1549 C.2       10 UNK         0.4970 
     63 O          30.9504    5.3165   -7.8238 O.2       10 UNK        -0.4914 
     64 N          30.8787    3.1098   -7.2960 N.am      11 UNK        -0.4285 
     65 CA         31.1535    3.1621   -5.8537 C.3       11 UNK         0.1007 
     66 C          29.8957    3.3449   -4.9559 C.2       11 UNK         0.5703 
     67 N          28.7283    3.6521   -5.5064 N.am      11 UNK        -0.7361 
     68 O          29.9827    3.2174   -3.7380 O.2       11 UNK        -0.4986 
     69 C69        32.0493    1.9618   -5.4240 C.3       12 UNK        -0.0947 
     70 S70        31.5431    0.3418   -6.1062 S.3       12 UNK        -0.2240 
     71 C71        30.7483   -0.4447   -4.6733 C.3       12 UNK         0.0194 
     72 H72        24.4137   -5.0491   -3.7327 H         1 UNK         0.0906 
     73 H73        25.7835   -5.9617   -4.3827 H         1 UNK         0.0906 
     74 H74        24.5443   -6.7848   -3.4433 H         1 UNK         0.0906 
     75 H75        27.5798   -5.1159   -3.2685 H         1 UNK         0.3140 
     76 H76        27.9431   -5.8514   -0.5478 H         1 UNK         0.1085 
     77 H77        29.7801   -3.9825   -2.0990 H         1 UNK         0.0836 
     78 H78        30.1980   -5.0101   -0.7615 H         1 UNK         0.0836 
     79 H79        32.0412   -5.1343   -3.4275 H         1 UNK         0.0731 
     80 H80        31.4716   -6.1687   -4.7109 H         1 UNK         0.0731 
     81 H81        31.7006   -2.8006   -3.6530 H         1 UNK         0.1312 
     82 H82        28.8524   -1.2415   -6.4250 H         1 UNK         0.1406 
     83 H83        29.1237   -5.4751   -5.8076 H         1 UNK         0.1631 
     84 H84        27.6579   -2.7269   -7.9006 H         1 UNK         0.0717 
     85 H85        27.9924   -4.4326   -7.8851 H         1 UNK         0.0717 
     86 H86        25.3894   -2.8976   -4.4532 H         1 UNK         0.0934 
     87 H87        26.8391   -2.1325   -4.9815 H         1 UNK         0.0934 
     88 H88        24.0844   -1.7572   -6.2781 H         1 UNK         0.0739 
     89 H89        25.2509   -0.4219   -4.0006 H         1 UNK         0.3093 
     90 H90        23.3986    2.5406   -4.1753 H         1 UNK         0.0818 
     91 H91        22.1677    1.9000   -2.1099 H         1 UNK         0.0819 
     92 H92        21.4412    1.1347   -3.5117 H         1 UNK         0.0819 
     93 H93        22.4613    0.1907   -2.4355 H         1 UNK         0.0819 
     94 H94        24.6724    1.1809   -1.9783 H         1 UNK         0.3041 
     95 H95        27.9781    1.8172   -2.8122 H         1 UNK         0.0784 
     96 H96        27.4380    4.1543   -2.0955 H         1 UNK         0.0793 
     97 H97        26.4457    3.5336   -0.7818 H         1 UNK         0.0793 
     98 H98        28.1879    3.2450   -0.7981 H         1 UNK         0.0793 
     99 H99        26.9832    1.1092   -0.3007 H         1 UNK         0.3024 
    100 H100       27.4720   -1.1537    0.2655 H         1 UNK         0.1171 
    101 H101       25.2695   -2.2366    0.8666 H         1 UNK         0.0786 
    102 H102       25.0381   -0.5381    0.4913 H         1 UNK         0.0786 
    103 H103       24.6021   -1.7647   -0.6936 H         1 UNK         0.0786 
    104 H104       26.9846   -2.8215   -2.0608 H         1 UNK         0.2977 
    105 H105       26.9545    0.2354   -5.7374 H         1 UNK         0.3127 
    106 H106       28.3252    1.4615   -6.8716 H         1 UNK         0.0770 
    107 H107       25.9214    1.9804   -8.6992 H         1 UNK         0.0814 
    108 H108       27.3481    3.0007   -8.5885 H         1 UNK         0.0814 
    109 H109       26.2861    2.8282   -7.1988 H         1 UNK         0.0814 
    110 H110       26.7517   -0.6646   -9.1758 H         1 UNK         0.2983 
    111 H111       28.0571   -0.1537  -11.4810 H         1 UNK         0.0947 
    112 H112       27.2997   -2.4381  -12.1926 H         1 UNK         0.0806 
    113 H113       26.0689   -1.6101  -11.2552 H         1 UNK         0.0806 
    114 H114       27.0406   -2.8776  -10.5093 H         1 UNK         0.0806 
    115 H115       29.7022   -1.7604   -8.8910 H         1 UNK         0.3000 
    116 H116       31.5935   -3.2544  -10.4695 H         1 UNK         0.0850 
    117 H117       32.8152   -3.4852   -8.3134 H         1 UNK         0.0810 
    118 H118       31.1116   -3.8533   -8.1124 H         1 UNK         0.0810 
    119 H119       31.7550   -2.3067   -7.5605 H         1 UNK         0.0810 
    120 H120       31.5603    0.0883   -9.1949 H         1 UNK         0.3040 
    121 H121       33.8392    0.8273  -10.8768 H         1 UNK         0.0766 
    122 H122       35.0151   -0.2400   -8.9319 H         1 UNK         0.0812 
    123 H123       34.1679    0.8349   -7.8234 H         1 UNK         0.0812 
    124 H124       35.3298    1.4790   -8.9753 H         1 UNK         0.0812 
    125 H125       30.9276    1.6862  -10.0545 H         1 UNK         0.3205 
    126 H126       29.6886    3.4817   -9.8023 H         1 UNK         0.0754 
    127 H127       30.4023    5.7237  -10.4840 H         1 UNK         0.0769 
    128 H128       31.0000    4.5592  -11.6546 H         1 UNK         0.0769 
    129 H129       32.0945    5.2602  -10.4631 H         1 UNK         0.0769 
    130 H130       30.7383    2.1788   -7.6660 H         1 UNK         0.2981 
    131 H131       31.7410    4.0624   -5.6656 H         1 UNK         0.0541 
    132 H132       28.6629    3.8220   -6.4950 H         1 UNK         0.3459 
    133 H133       27.8989    3.7012   -4.9286 H         1 UNK         0.3459 
    134 H134       32.1488    1.8965   -4.3392 H         1 UNK         0.0612 
    135 H135       33.0618    2.1418   -5.7879 H         1 UNK         0.0612 
    136 H136       29.8794    0.1426   -4.3719 H         1 UNK         0.0624 
    137 H137       31.4404   -0.4379   -3.8300 H         1 UNK         0.0624 
@<TRIPOS>BOND
     1    1    2 1    
     2    1   72 1    
     3    1   73 1    
     4    1   74 1    
     5    2    3 2    
     6    2    4 am   BACKBONE|DICT|INTERRES
     7    4    5 1    
     8    4   75 1    
     9    5    6 1    
    10    5   35 1    
    11    5   76 1    
    12    6    7 1    
    13    6   77 1    
    14    6   78 1    
    15    7    8 1    
    16    8    9 1    
    17    8   79 1    
    18    8   80 1    
    19    9   10 ar   
    20    9   14 ar   
    21   10   11 ar   
    22   10   81 1    
    23   11   12 ar   
    24   11   71 1    
    25   12   13 ar   
    26   12   82 1    
    27   13   14 ar   
    28   13   15 1    
    29   14   83 1    
    30   15   16 1    
    31   15   84 1    
    32   15   85 1    
    33   16   17 1    
    34   17   18 1    
    35   17   86 1    
    36   17   87 1    
    37   18   19 1    
    38   18   37 1    
    39   18   88 1    
    40   19   20 am   BACKBONE|DICT|INTERRES
    41   19   89 1    
    42   20   21 2    
    43   20   22 1    
    44   22   23 1    
    45   22   24 1    
    46   22   90 1    
    47   23   91 1    
    48   23   92 1    
    49   23   93 1    
    50   24   25 am   BACKBONE|DICT|INTERRES
    51   24   94 1    
    52   25   26 2    
    53   25   27 1    
    54   27   28 1    
    55   27   29 1    
    56   27   95 1    
    57   28   96 1    
    58   28   97 1    
    59   28   98 1    
    60   29   30 am   BACKBONE|DICT|INTERRES
    61   29   99 1    
    62   30   31 2    
    63   30   32 1    
    64   32   33 1    
    65   32   34 1    
    66   32  100 1    
    67   33  101 1    
    68   33  102 1    
    69   33  103 1    
    70   34   35 am   BACKBONE|DICT|INTERRES
    71   34  104 1    
    72   35   36 2    
    73   37   38 2    
    74   37   39 am   BACKBONE|DICT|INTERRES
    75   39   40 1    
    76   39  105 1    
    77   40   41 1    
    78   40   42 1    
    79   40  106 1    
    80   41  107 1    
    81   41  108 1    
    82   41  109 1    
    83   42   43 2    
    84   42   44 am   BACKBONE|DICT|INTERRES
    85   44   45 1    
    86   44  110 1    
    87   45   46 1    
    88   45   47 1    
    89   45  111 1    
    90   46  112 1    
    91   46  113 1    
    92   46  114 1    
    93   47   48 2    
    94   47   49 am   BACKBONE|DICT|INTERRES
    95   49   50 1    
    96   49  115 1    
    97   50   51 1    
    98   50   52 1    
    99   50  116 1    
   100   51  117 1    
   101   51  118 1    
   102   51  119 1    
   103   52   53 2    
   104   52   54 am   BACKBONE|DICT|INTERRES
   105   54   55 1    
   106   54  120 1    
   107   55   56 1    
   108   55   57 1    
   109   55  121 1    
   110   56  122 1    
   111   56  123 1    
   112   56  124 1    
   113   57   58 2    
   114   57   59 am   BACKBONE|DICT|INTERRES
   115   59   60 1    
   116   59  125 1    
   117   60   61 1    
   118   60   62 1    
   119   60  126 1    
   120   61  127 1    
   121   61  128 1    
   122   61  129 1    
   123   62   63 2    
   124   62   64 am   BACKBONE|DICT|INTERRES
   125   64   65 1    
   126   64  130 1    
   127   65   66 1    
   128   65   69 1    
   129   65  131 1    
   130   66   67 am   BACKBONE|DICT|INTERRES
   131   66   68 2    
   132   67  132 1    
   133   67  133 1    
   134   69   70 1    
   135   69  134 1    
   136   69  135 1    
   137   70   71 1    
   138   71  136 1    
   139   71  137 1    
@<TRIPOS>SUBSTRUCTURE
     1 UNK         1 GROUP             0       ****    0 ROOT    
