@<TRIPOS>MOLECULE
3R137
137   139    1
SMALL
USER_CHARGES


@<TRIPOS>ATOM
      1 CA         29.1781   -0.2478   -2.9991 C.3       0 UNK        -0.2020 
      2 C          29.2491   -0.1771   -1.4789 C.2       0 UNK         0.4855 
      3 O          29.5131    0.8940   -0.9376 O.2       0 UNK        -0.5197 
      4 N          29.0277   -1.2735   -0.7396 N.am      1 UNK        -0.4892 
      5 CA         28.6469   -2.6138   -1.2095 C.3       1 UNK         0.0835 
      6 C6         28.9410   -3.6583   -0.1000 C.3       12 UNK        -0.0855 
      7 S7         28.8810   -5.3981   -0.6491 S.3       12 UNK        -0.2931 
      8 C8         30.6064   -5.6984   -1.1567 C.3       12 UNK         0.0378 
      9 C9         30.9586   -4.9568   -2.4388 C.ar      12 UNK        -0.0802 
     10 C10        31.9477   -3.9667   -2.4408 C.ar      12 UNK        -0.0944 
     11 C11        32.2625   -3.2852   -3.6209 C.ar      12 UNK        -0.0787 
     12 C12        31.5783   -3.5964   -4.7998 C.ar      12 UNK        -0.0862 
     13 C13        30.5728   -4.5669   -4.8050 C.ar      12 UNK        -0.0733 
     14 C14        30.2812   -5.2562   -3.6255 C.ar      12 UNK        -0.0832 
     15 C15        29.7918   -4.8622   -6.0790 C.3       12 UNK         0.0240 
     16 S16        28.0621   -4.2927   -5.9718 S.3       12 UNK        -0.2522 
     17 C17        28.2532   -2.4976   -5.7038 C.3       12 UNK        -0.0967 
     18 CA         27.4544   -1.6617   -6.7272 C.3       5 UNK         0.0660 
     19 N          26.0089   -1.8465   -6.5810 N.am      5 UNK        -0.4015 
     20 C          25.0998   -1.4496   -7.4807 C.2       4 UNK         0.4946 
     21 O          25.3791   -0.8885   -8.5412 O.2       4 UNK        -0.5353 
     22 CA         23.6268   -1.6837   -7.1085 C.3       4 UNK         0.0277 
     23 CB         23.2628   -3.1746   -7.2067 C.3       4 UNK        -0.1981 
     24 N          23.2900   -1.1751   -5.7747 N.am      4 UNK        -0.4209 
     25 C          23.3464    0.1186   -5.4277 C.2       3 UNK         0.4942 
     26 O          23.7035    1.0161   -6.1873 O.2       3 UNK        -0.5208 
     27 CA         22.9557    0.4867   -3.9888 C.3       3 UNK         0.0250 
     28 CB         21.4337    0.6743   -3.8805 C.3       3 UNK        -0.1990 
     29 N          23.4075   -0.4477   -2.9535 N.am      3 UNK        -0.4232 
     30 C          24.6704   -0.8460   -2.7430 C.2       2 UNK         0.4993 
     31 O          25.6081   -0.5903   -3.5042 O.2       2 UNK        -0.5286 
     32 CA         24.8976   -1.6208   -1.4299 C.3       2 UNK         0.0209 
     33 CB         24.0990   -2.9434   -1.3899 C.3       2 UNK        -0.1931 
     34 N          26.3176   -1.8317   -1.1127 N.am      2 UNK        -0.4546 
     35 C          27.1820   -2.6715   -1.7030 C.2       1 UNK         0.5154 
     36 O          26.8785   -3.4486   -2.6072 O.2       1 UNK        -0.5181 
     37 C          27.8463   -0.1751   -6.6412 C.2       5 UNK         0.5014 
     38 O          28.7511    0.2449   -7.3653 O.2       5 UNK        -0.5248 
     39 N          27.1583    0.5927   -5.7815 N.am      6 UNK        -0.4434 
     40 CA         27.3485    2.0358   -5.6316 C.3       6 UNK         0.0363 
     41 CB         26.5873    2.5397   -4.3960 C.3       6 UNK        -0.1936 
     42 C          26.9389    2.8170   -6.8908 C.2       6 UNK         0.5081 
     43 O          27.7061    3.6657   -7.3432 O.2       6 UNK        -0.5248 
     44 N          25.7676    2.4952   -7.4606 N.am      7 UNK        -0.4718 
     45 CA         25.2561    3.0832   -8.7041 C.3       7 UNK         0.0273 
     46 CB         23.7994    2.6475   -8.9270 C.3       7 UNK        -0.1935 
     47 C          26.1139    2.7337   -9.9302 C.2       7 UNK         0.5018 
     48 O          26.3059    3.5878  -10.7963 O.2       7 UNK        -0.5186 
     49 N          26.6395    1.5012   -9.9664 N.am      8 UNK        -0.4240 
     50 CA         27.5973    1.0399  -10.9744 C.3       8 UNK         0.0235 
     51 CB         27.6749   -0.4950  -10.9217 C.3       8 UNK        -0.2000 
     52 C          29.0052    1.6458  -10.8122 C.2       8 UNK         0.4941 
     53 O          29.7929    1.5669  -11.7557 O.2       8 UNK        -0.5273 
     54 N          29.3058    2.1996   -9.6252 N.am      9 UNK        -0.4262 
     55 CA         30.6149    2.6778   -9.1615 C.3       9 UNK         0.0264 
     56 CB         31.0596    3.9281   -9.9486 C.3       9 UNK        -0.1955 
     57 C          31.6718    1.5554   -9.1577 C.2       9 UNK         0.5031 
     58 O          32.8328    1.7901   -9.5016 O.2       9 UNK        -0.5390 
     59 N          31.2407    0.3440   -8.7770 N.am      10 UNK        -0.4204 
     60 CA         32.0064   -0.9006   -8.8876 C.3       10 UNK         0.0237 
     61 CB         31.0774   -2.0871   -8.5916 C.3       10 UNK        -0.1985 
     62 C          33.2643   -0.9571   -8.0049 C.2       10 UNK         0.4970 
     63 O          34.1905   -1.6994   -8.3333 O.2       10 UNK        -0.4914 
     64 N          33.2822   -0.1757   -6.9185 N.am      11 UNK        -0.4285 
     65 CA         34.4390   -0.0208   -6.0237 C.3       11 UNK         0.1007 
     66 C          35.5450    0.9269   -6.5756 C.2       11 UNK         0.5703 
     67 N          35.3428    1.6208   -7.6915 N.am      11 UNK        -0.7361 
     68 O          36.6160    1.0274   -5.9817 O.2       11 UNK        -0.4986 
     69 C69        34.0253    0.3750   -4.5773 C.3       12 UNK        -0.0947 
     70 S70        32.6112   -0.5690   -3.9146 S.3       12 UNK        -0.2240 
     71 C71        33.3409   -2.2126   -3.6397 C.3       12 UNK         0.0194 
     72 H72        29.7314   -1.0998   -3.3901 H         1 UNK         0.0906 
     73 H73        28.1430   -0.3163   -3.3219 H         1 UNK         0.0906 
     74 H74        29.6059    0.6505   -3.4438 H         1 UNK         0.0906 
     75 H75        29.1068   -1.1812    0.2636 H         1 UNK         0.3140 
     76 H76        29.2726   -2.8575   -2.0678 H         1 UNK         0.1085 
     77 H77        29.9304   -3.4789    0.3245 H         1 UNK         0.0836 
     78 H78        28.2417   -3.5396    0.7300 H         1 UNK         0.0836 
     79 H79        30.7432   -6.7682   -1.3203 H         1 UNK         0.0731 
     80 H80        31.2801   -5.4252   -0.3429 H         1 UNK         0.0731 
     81 H81        32.4713   -3.7257   -1.5257 H         1 UNK         0.1312 
     82 H82        31.8210   -3.0634   -5.7085 H         1 UNK         0.1406 
     83 H83        29.5015   -6.0063   -3.6235 H         1 UNK         0.1631 
     84 H84        29.7970   -5.9377   -6.2614 H         1 UNK         0.0717 
     85 H85        30.2680   -4.4049   -6.9465 H         1 UNK         0.0717 
     86 H86        27.9235   -2.2730   -4.6902 H         1 UNK         0.0934 
     87 H87        29.3107   -2.2366   -5.7380 H         1 UNK         0.0934 
     88 H88        27.7309   -2.0013   -7.7278 H         1 UNK         0.0739 
     89 H89        25.6959   -2.2731   -5.7207 H         1 UNK         0.3093 
     90 H90        23.0176   -1.1388   -7.8332 H         1 UNK         0.0818 
     91 H91        23.5034   -3.5693   -8.1950 H         1 UNK         0.0819 
     92 H92        23.8030   -3.7770   -6.4753 H         1 UNK         0.0819 
     93 H93        22.1958   -3.3328   -7.0488 H         1 UNK         0.0819 
     94 H94        22.9921   -1.8464   -5.0821 H         1 UNK         0.3041 
     95 H95        23.4245    1.4475   -3.7684 H         1 UNK         0.0784 
     96 H96        21.0731    1.3814   -4.6294 H         1 UNK         0.0793 
     97 H97        20.8981   -0.2635   -4.0335 H         1 UNK         0.0793 
     98 H98        21.1495    1.0691   -2.9049 H         1 UNK         0.0793 
     99 H99        22.7078   -0.7201   -2.2783 H         1 UNK         0.3024 
    100 H100       24.5188   -0.9825   -0.6296 H         1 UNK         0.1171 
    101 H101       24.3241   -3.5153   -0.4896 H         1 UNK         0.0786 
    102 H102       23.0244   -2.7592   -1.3889 H         1 UNK         0.0786 
    103 H103       24.3134   -3.5777   -2.2506 H         1 UNK         0.0786 
    104 H104       26.6980   -1.2074   -0.4150 H         1 UNK         0.2977 
    105 H105       26.4570    0.1608   -5.1860 H         1 UNK         0.3127 
    106 H106       28.4135    2.2121   -5.4648 H         1 UNK         0.0770 
    107 H107       25.5128    2.3889   -4.4954 H         1 UNK         0.0814 
    108 H108       26.7542    3.6068   -4.2445 H         1 UNK         0.0814 
    109 H109       26.9146    2.0280   -3.4907 H         1 UNK         0.0814 
    110 H110       25.1628    1.8147   -7.0029 H         1 UNK         0.2983 
    111 H111       25.2743    4.1693   -8.5905 H         1 UNK         0.0947 
    112 H112       23.3975    3.0757   -9.8463 H         1 UNK         0.0806 
    113 H113       23.1586    2.9769   -8.1090 H         1 UNK         0.0806 
    114 H114       23.7115    1.5627   -9.0038 H         1 UNK         0.0806 
    115 H115       26.3687    0.8339   -9.2504 H         1 UNK         0.3000 
    116 H116       27.2268    1.3319  -11.9594 H         1 UNK         0.0850 
    117 H117       28.3565   -0.8808  -11.6810 H         1 UNK         0.0810 
    118 H118       26.6997   -0.9482  -11.1011 H         1 UNK         0.0810 
    119 H119       28.0327   -0.8454   -9.9532 H         1 UNK         0.0810 
    120 H120       28.5797    2.2064   -8.9193 H         1 UNK         0.3040 
    121 H121       30.4786    2.9723   -8.1198 H         1 UNK         0.0766 
    122 H122       31.2717    3.6962  -10.9927 H         1 UNK         0.0812 
    123 H123       31.9670    4.3560   -9.5207 H         1 UNK         0.0812 
    124 H124       30.2935    4.7031   -9.9249 H         1 UNK         0.0812 
    125 H125       30.2865    0.2678   -8.4267 H         1 UNK         0.3205 
    126 H126       32.3420   -0.9839   -9.9235 H         1 UNK         0.0754 
    127 H127       30.2451   -2.1253   -9.2946 H         1 UNK         0.0769 
    128 H128       30.6634   -2.0224   -7.5870 H         1 UNK         0.0769 
    129 H129       31.6117   -3.0350   -8.6699 H         1 UNK         0.0769 
    130 H130       32.4796    0.4010   -6.7177 H         1 UNK         0.2981 
    131 H131       34.9230   -0.9959   -5.9557 H         1 UNK         0.0541 
    132 H132       34.4728    1.5500   -8.2062 H         1 UNK         0.3459 
    133 H133       36.0748    2.2238   -8.0314 H         1 UNK         0.3459 
    134 H134       33.7483    1.4302   -4.5426 H         1 UNK         0.0612 
    135 H135       34.8681    0.2597   -3.8935 H         1 UNK         0.0612 
    136 H136       33.9057   -2.2021   -2.7065 H         1 UNK         0.0624 
    137 H137       34.0510   -2.4498   -4.4315 H         1 UNK         0.0624 
@<TRIPOS>BOND
     1    1    2 1    
     2    1   72 1    
     3    1   73 1    
     4    1   74 1    
     5    2    3 2    
     6    2    4 am   BACKBONE|DICT|INTERRES
     7    4    5 1    
     8    4   75 1    
     9    5    6 1    
    10    5   35 1    
    11    5   76 1    
    12    6    7 1    
    13    6   77 1    
    14    6   78 1    
    15    7    8 1    
    16    8    9 1    
    17    8   79 1    
    18    8   80 1    
    19    9   10 ar   
    20    9   14 ar   
    21   10   11 ar   
    22   10   81 1    
    23   11   12 ar   
    24   11   71 1    
    25   12   13 ar   
    26   12   82 1    
    27   13   14 ar   
    28   13   15 1    
    29   14   83 1    
    30   15   16 1    
    31   15   84 1    
    32   15   85 1    
    33   16   17 1    
    34   17   18 1    
    35   17   86 1    
    36   17   87 1    
    37   18   19 1    
    38   18   37 1    
    39   18   88 1    
    40   19   20 am   BACKBONE|DICT|INTERRES
    41   19   89 1    
    42   20   21 2    
    43   20   22 1    
    44   22   23 1    
    45   22   24 1    
    46   22   90 1    
    47   23   91 1    
    48   23   92 1    
    49   23   93 1    
    50   24   25 am   BACKBONE|DICT|INTERRES
    51   24   94 1    
    52   25   26 2    
    53   25   27 1    
    54   27   28 1    
    55   27   29 1    
    56   27   95 1    
    57   28   96 1    
    58   28   97 1    
    59   28   98 1    
    60   29   30 am   BACKBONE|DICT|INTERRES
    61   29   99 1    
    62   30   31 2    
    63   30   32 1    
    64   32   33 1    
    65   32   34 1    
    66   32  100 1    
    67   33  101 1    
    68   33  102 1    
    69   33  103 1    
    70   34   35 am   BACKBONE|DICT|INTERRES
    71   34  104 1    
    72   35   36 2    
    73   37   38 2    
    74   37   39 am   BACKBONE|DICT|INTERRES
    75   39   40 1    
    76   39  105 1    
    77   40   41 1    
    78   40   42 1    
    79   40  106 1    
    80   41  107 1    
    81   41  108 1    
    82   41  109 1    
    83   42   43 2    
    84   42   44 am   BACKBONE|DICT|INTERRES
    85   44   45 1    
    86   44  110 1    
    87   45   46 1    
    88   45   47 1    
    89   45  111 1    
    90   46  112 1    
    91   46  113 1    
    92   46  114 1    
    93   47   48 2    
    94   47   49 am   BACKBONE|DICT|INTERRES
    95   49   50 1    
    96   49  115 1    
    97   50   51 1    
    98   50   52 1    
    99   50  116 1    
   100   51  117 1    
   101   51  118 1    
   102   51  119 1    
   103   52   53 2    
   104   52   54 am   BACKBONE|DICT|INTERRES
   105   54   55 1    
   106   54  120 1    
   107   55   56 1    
   108   55   57 1    
   109   55  121 1    
   110   56  122 1    
   111   56  123 1    
   112   56  124 1    
   113   57   58 2    
   114   57   59 am   BACKBONE|DICT|INTERRES
   115   59   60 1    
   116   59  125 1    
   117   60   61 1    
   118   60   62 1    
   119   60  126 1    
   120   61  127 1    
   121   61  128 1    
   122   61  129 1    
   123   62   63 2    
   124   62   64 am   BACKBONE|DICT|INTERRES
   125   64   65 1    
   126   64  130 1    
   127   65   66 1    
   128   65   69 1    
   129   65  131 1    
   130   66   67 am   BACKBONE|DICT|INTERRES
   131   66   68 2    
   132   67  132 1    
   133   67  133 1    
   134   69   70 1    
   135   69  134 1    
   136   69  135 1    
   137   70   71 1    
   138   71  136 1    
   139   71  137 1    
@<TRIPOS>SUBSTRUCTURE
     1 UNK         1 GROUP             0       ****    0 ROOT    
