@<TRIPOS>MOLECULE
3R137
137   139    1
SMALL
USER_CHARGES


@<TRIPOS>ATOM
      1 CA         29.6658   -0.9425    2.6442 C.3       0 UNK        -0.2020 
      2 C          29.1474   -1.1792    1.2335 C.2       0 UNK         0.4855 
      3 O          28.2521   -0.4641    0.7838 O.2       0 UNK        -0.5197 
      4 N          29.7096   -2.1714    0.5327 N.am      1 UNK        -0.4892 
      5 CA         29.3266   -2.5752   -0.8248 C.3       1 UNK         0.0835 
      6 C6         30.3407   -3.5838   -1.4282 C.3       12 UNK        -0.0855 
      7 S7         32.0490   -2.9341   -1.4704 S.3       12 UNK        -0.2931 
      8 C8         32.4596   -3.0089   -3.2494 C.3       12 UNK         0.0378 
      9 C9         31.5283   -2.1877   -4.1372 C.ar      12 UNK        -0.0802 
     10 C10        31.0957   -2.7116   -5.3594 C.ar      12 UNK        -0.0944 
     11 C11        30.2481   -1.9756   -6.1943 C.ar      12 UNK        -0.0787 
     12 C12        29.7996   -0.7197   -5.7767 C.ar      12 UNK        -0.0862 
     13 C13        30.2024   -0.1966   -4.5447 C.ar      12 UNK        -0.0733 
     14 C14        31.0909   -0.9186   -3.7460 C.ar      12 UNK        -0.0832 
     15 C15        29.6246    1.1119   -4.0357 C.3       12 UNK         0.0240 
     16 S16        28.0766    0.7699   -3.1426 S.3       12 UNK        -0.2522 
     17 C17        26.8813    1.8697   -3.9699 C.3       12 UNK        -0.0967 
     18 CA         26.6030    1.5113   -5.4523 C.3       5 UNK         0.0660 
     19 N          26.0710    0.1531   -5.6419 N.am      5 UNK        -0.4015 
     20 C          25.9081   -0.4370   -6.8402 C.2       4 UNK         0.4946 
     21 O          26.2886    0.0700   -7.8956 O.2       4 UNK        -0.5353 
     22 CA         25.1335   -1.7684   -6.9166 C.3       4 UNK         0.0277 
     23 CB         26.1001   -2.9412   -7.1404 C.3       4 UNK        -0.1981 
     24 N          24.2939   -2.0563   -5.7531 N.am      4 UNK        -0.4209 
     25 C          23.3156   -1.2794   -5.2642 C.2       3 UNK         0.4942 
     26 O          22.9233   -0.2493   -5.8137 O.2       3 UNK        -0.5208 
     27 CA         22.7361   -1.6777   -3.8902 C.3       3 UNK         0.0250 
     28 CB         21.3912   -2.4005   -4.0661 C.3       3 UNK        -0.1990 
     29 N          23.6321   -2.5091   -3.0676 N.am      3 UNK        -0.4232 
     30 C          24.8868   -2.1839   -2.7187 C.2       2 UNK         0.4993 
     31 O          25.4192   -1.1177   -3.0345 O.2       2 UNK        -0.5286 
     32 CA         25.7000   -3.2471   -1.9676 C.3       2 UNK         0.0209 
     33 CB         25.7582   -4.5770   -2.7507 C.3       2 UNK        -0.1931 
     34 N          27.0579   -2.7456   -1.7585 N.am      2 UNK        -0.4546 
     35 C          27.9099   -3.1866   -0.8282 C.2       1 UNK         0.5154 
     36 O          27.6302   -4.0683   -0.0108 O.2       1 UNK        -0.5181 
     37 C          25.7515    2.6162   -6.1226 C.2       5 UNK         0.5014 
     38 O          26.2572    3.7223   -6.3185 O.2       5 UNK        -0.5248 
     39 N          24.4915    2.3198   -6.4771 N.am      6 UNK        -0.4434 
     40 CA         23.6458    3.1957   -7.2895 C.3       6 UNK         0.0363 
     41 CB         22.1752    2.7940   -7.0916 C.3       6 UNK        -0.1936 
     42 C          24.0071    3.1739   -8.7894 C.2       6 UNK         0.5081 
     43 O          23.5972    4.0893   -9.5044 O.2       6 UNK        -0.5248 
     44 N          24.7256    2.1394   -9.2519 N.am      7 UNK        -0.4718 
     45 CA         25.0377    1.9059  -10.6651 C.3       7 UNK         0.0273 
     46 CB         24.5387    0.5043  -11.0559 C.3       7 UNK        -0.1935 
     47 C          26.5366    2.0350  -10.9783 C.2       7 UNK         0.5018 
     48 O          26.8778    2.5058  -12.0645 O.2       7 UNK        -0.5186 
     49 N          27.4018    1.6054  -10.0536 N.am      8 UNK        -0.4240 
     50 CA         28.8573    1.5672  -10.2063 C.3       8 UNK         0.0235 
     51 CB         29.2582    0.1943  -10.7792 C.3       8 UNK        -0.2000 
     52 C          29.5315    1.8686   -8.8587 C.2       8 UNK         0.4941 
     53 O          28.8484    2.2505   -7.9095 O.2       8 UNK        -0.5273 
     54 N          30.8578    1.7143   -8.7835 N.am      9 UNK        -0.4262 
     55 CA         31.6409    1.9095   -7.5658 C.3       9 UNK         0.0264 
     56 CB         31.9910    3.3983   -7.3891 C.3       9 UNK        -0.1955 
     57 C          32.9079    1.0543   -7.6361 C.2       9 UNK         0.5031 
     58 O          33.4805    0.9235   -8.7209 O.2       9 UNK        -0.5390 
     59 N          33.3295    0.5313   -6.4736 N.am      10 UNK        -0.4204 
     60 CA         34.5670   -0.2245   -6.2272 C.3       10 UNK         0.0237 
     61 CB         35.7803    0.7296   -6.2525 C.3       10 UNK        -0.1985 
     62 C          34.7464   -1.4418   -7.1573 C.2       10 UNK         0.4970 
     63 O          35.8277   -1.6415   -7.7145 O.2       10 UNK        -0.4914 
     64 N          33.6697   -2.2192   -7.3219 N.am      11 UNK        -0.4285 
     65 CA         33.5826   -3.3448   -8.2675 C.3       11 UNK         0.1007 
     66 C          34.4519   -4.5870   -7.9123 C.2       11 UNK         0.5703 
     67 N          34.9923   -4.6995   -6.7046 N.am      11 UNK        -0.7361 
     68 O          34.6395   -5.4644   -8.7519 O.2       11 UNK        -0.4986 
     69 C69        32.1148   -3.7688   -8.5459 C.3       12 UNK        -0.0947 
     70 S70        30.9874   -2.3660   -8.8573 S.3       12 UNK        -0.2240 
     71 C71        29.7656   -2.5510   -7.5196 C.3       12 UNK         0.0194 
     72 H72        30.0532    0.0718    2.7362 H         1 UNK         0.0906 
     73 H73        28.8586   -1.0659    3.3659 H         1 UNK         0.0906 
     74 H74        30.4648   -1.6354    2.9076 H         1 UNK         0.0906 
     75 H75        30.4401   -2.7271    0.9542 H         1 UNK         0.3140 
     76 H76        29.3181   -1.6778   -1.4477 H         1 UNK         0.1085 
     77 H77        30.0363   -3.8667   -2.4379 H         1 UNK         0.0836 
     78 H78        30.3508   -4.5100   -0.8498 H         1 UNK         0.0836 
     79 H79        33.4792   -2.6476   -3.3879 H         1 UNK         0.0731 
     80 H80        32.4589   -4.0560   -3.5571 H         1 UNK         0.0731 
     81 H81        31.4159   -3.7003   -5.6539 H         1 UNK         0.1312 
     82 H82        29.1123   -0.1621   -6.3982 H         1 UNK         0.1406 
     83 H83        31.4035   -0.5114   -2.7939 H         1 UNK         0.1631 
     84 H84        29.4673    1.8092   -4.8585 H         1 UNK         0.0717 
     85 H85        30.3247    1.6007   -3.3565 H         1 UNK         0.0717 
     86 H86        25.9522    1.8443   -3.3973 H         1 UNK         0.0934 
     87 H87        27.2621    2.8895   -3.8826 H         1 UNK         0.0934 
     88 H88        27.5547    1.5284   -5.9734 H         1 UNK         0.0739 
     89 H89        25.7685   -0.3262   -4.7974 H         1 UNK         0.3093 
     90 H90        24.4696   -1.7015   -7.7811 H         1 UNK         0.0818 
     91 H91        25.5672   -3.8887   -7.2228 H         1 UNK         0.0819 
     92 H92        26.6564   -2.8093   -8.0689 H         1 UNK         0.0819 
     93 H93        26.8244   -3.0298   -6.3292 H         1 UNK         0.0819 
     94 H94        24.5361   -2.8796   -5.2230 H         1 UNK         0.3041 
     95 H95        22.5588   -0.7511   -3.3403 H         1 UNK         0.0784 
     96 H96        20.6969   -1.7958   -4.6517 H         1 UNK         0.0793 
     97 H97        21.5091   -3.3536   -4.5831 H         1 UNK         0.0793 
     98 H98        20.9150   -2.5947   -3.1048 H         1 UNK         0.0793 
     99 H99        23.2637   -3.4017   -2.7710 H         1 UNK         0.3024 
    100 H100       25.2223   -3.4070   -0.9982 H         1 UNK         0.1171 
    101 H101       26.3509   -5.3242   -2.2225 H         1 UNK         0.0786 
    102 H102       26.2016   -4.4426   -3.7382 H         1 UNK         0.0786 
    103 H103       24.7666   -5.0084   -2.8901 H         1 UNK         0.0786 
    104 H104       27.2987   -1.9509   -2.3412 H         1 UNK         0.2977 
    105 H105       24.1117    1.4047   -6.2539 H         1 UNK         0.3127 
    106 H106       23.7652    4.2228   -6.9378 H         1 UNK         0.0770 
    107 H107       21.9823    1.7819   -7.4499 H         1 UNK         0.0814 
    108 H108       21.5101    3.4648   -7.6372 H         1 UNK         0.0814 
    109 H109       21.8884    2.8377   -6.0408 H         1 UNK         0.0814 
    110 H110       25.0805    1.4502   -8.5964 H         1 UNK         0.2983 
    111 H111       24.5170    2.6308  -11.2948 H         1 UNK         0.0947 
    112 H112       24.7466    0.2935  -12.1059 H         1 UNK         0.0806 
    113 H113       23.4615    0.4146  -10.9150 H         1 UNK         0.0806 
    114 H114       25.0200   -0.2759  -10.4644 H         1 UNK         0.0806 
    115 H115       27.0538    1.2408   -9.1689 H         1 UNK         0.3000 
    116 H116       29.1761    2.3509  -10.8968 H         1 UNK         0.0850 
    117 H117       30.3359    0.1069  -10.9188 H         1 UNK         0.0810 
    118 H118       28.7983    0.0255  -11.7530 H         1 UNK         0.0810 
    119 H119       28.9410   -0.6151  -10.1211 H         1 UNK         0.0810 
    120 H120       31.3852    1.3692   -9.5758 H         1 UNK         0.3040 
    121 H121       31.0535    1.5837   -6.7077 H         1 UNK         0.0766 
    122 H122       32.5618    3.7794   -8.2368 H         1 UNK         0.0812 
    123 H123       32.5911    3.5566   -6.4922 H         1 UNK         0.0812 
    124 H124       31.0929    4.0082   -7.2885 H         1 UNK         0.0812 
    125 H125       32.7580    0.6889   -5.6552 H         1 UNK         0.3205 
    126 H126       34.4861   -0.6274   -5.2164 H         1 UNK         0.0754 
    127 H127       36.6966    0.2088   -5.9711 H         1 UNK         0.0769 
    128 H128       35.6510    1.5545   -5.5519 H         1 UNK         0.0769 
    129 H129       35.9375    1.1547   -7.2447 H         1 UNK         0.0769 
    130 H130       32.8111   -1.9741   -6.8504 H         1 UNK         0.2981 
    131 H131       33.9831   -2.9722   -9.2123 H         1 UNK         0.0541 
    132 H132       34.8575   -3.9787   -6.0153 H         1 UNK         0.3459 
    133 H133       35.5555   -5.5071   -6.4897 H         1 UNK         0.3459 
    134 H134       31.7259   -4.3791   -7.7313 H         1 UNK         0.0612 
    135 H135       32.0795   -4.4107   -9.4280 H         1 UNK         0.0612 
    136 H136       28.8583   -2.0337   -7.8326 H         1 UNK         0.0624 
    137 H137       29.4906   -3.6000   -7.4020 H         1 UNK         0.0624 
@<TRIPOS>BOND
     1    1    2 1    
     2    1   72 1    
     3    1   73 1    
     4    1   74 1    
     5    2    3 2    
     6    2    4 am   BACKBONE|DICT|INTERRES
     7    4    5 1    
     8    4   75 1    
     9    5    6 1    
    10    5   35 1    
    11    5   76 1    
    12    6    7 1    
    13    6   77 1    
    14    6   78 1    
    15    7    8 1    
    16    8    9 1    
    17    8   79 1    
    18    8   80 1    
    19    9   10 ar   
    20    9   14 ar   
    21   10   11 ar   
    22   10   81 1    
    23   11   12 ar   
    24   11   71 1    
    25   12   13 ar   
    26   12   82 1    
    27   13   14 ar   
    28   13   15 1    
    29   14   83 1    
    30   15   16 1    
    31   15   84 1    
    32   15   85 1    
    33   16   17 1    
    34   17   18 1    
    35   17   86 1    
    36   17   87 1    
    37   18   19 1    
    38   18   37 1    
    39   18   88 1    
    40   19   20 am   BACKBONE|DICT|INTERRES
    41   19   89 1    
    42   20   21 2    
    43   20   22 1    
    44   22   23 1    
    45   22   24 1    
    46   22   90 1    
    47   23   91 1    
    48   23   92 1    
    49   23   93 1    
    50   24   25 am   BACKBONE|DICT|INTERRES
    51   24   94 1    
    52   25   26 2    
    53   25   27 1    
    54   27   28 1    
    55   27   29 1    
    56   27   95 1    
    57   28   96 1    
    58   28   97 1    
    59   28   98 1    
    60   29   30 am   BACKBONE|DICT|INTERRES
    61   29   99 1    
    62   30   31 2    
    63   30   32 1    
    64   32   33 1    
    65   32   34 1    
    66   32  100 1    
    67   33  101 1    
    68   33  102 1    
    69   33  103 1    
    70   34   35 am   BACKBONE|DICT|INTERRES
    71   34  104 1    
    72   35   36 2    
    73   37   38 2    
    74   37   39 am   BACKBONE|DICT|INTERRES
    75   39   40 1    
    76   39  105 1    
    77   40   41 1    
    78   40   42 1    
    79   40  106 1    
    80   41  107 1    
    81   41  108 1    
    82   41  109 1    
    83   42   43 2    
    84   42   44 am   BACKBONE|DICT|INTERRES
    85   44   45 1    
    86   44  110 1    
    87   45   46 1    
    88   45   47 1    
    89   45  111 1    
    90   46  112 1    
    91   46  113 1    
    92   46  114 1    
    93   47   48 2    
    94   47   49 am   BACKBONE|DICT|INTERRES
    95   49   50 1    
    96   49  115 1    
    97   50   51 1    
    98   50   52 1    
    99   50  116 1    
   100   51  117 1    
   101   51  118 1    
   102   51  119 1    
   103   52   53 2    
   104   52   54 am   BACKBONE|DICT|INTERRES
   105   54   55 1    
   106   54  120 1    
   107   55   56 1    
   108   55   57 1    
   109   55  121 1    
   110   56  122 1    
   111   56  123 1    
   112   56  124 1    
   113   57   58 2    
   114   57   59 am   BACKBONE|DICT|INTERRES
   115   59   60 1    
   116   59  125 1    
   117   60   61 1    
   118   60   62 1    
   119   60  126 1    
   120   61  127 1    
   121   61  128 1    
   122   61  129 1    
   123   62   63 2    
   124   62   64 am   BACKBONE|DICT|INTERRES
   125   64   65 1    
   126   64  130 1    
   127   65   66 1    
   128   65   69 1    
   129   65  131 1    
   130   66   67 am   BACKBONE|DICT|INTERRES
   131   66   68 2    
   132   67  132 1    
   133   67  133 1    
   134   69   70 1    
   135   69  134 1    
   136   69  135 1    
   137   70   71 1    
   138   71  136 1    
   139   71  137 1    
@<TRIPOS>SUBSTRUCTURE
     1 UNK         1 GROUP             0       ****    0 ROOT    
