@<TRIPOS>MOLECULE
3R137
137   139    1
SMALL
USER_CHARGES


@<TRIPOS>ATOM
      1 CA         29.6133    0.4057    2.6177 C.3       0 UNK        -0.2020 
      2 C          29.0004    0.2436    1.2345 C.2       0 UNK         0.4855 
      3 O          28.6302    1.2376    0.6085 O.2       0 UNK        -0.5197 
      4 N          28.8990   -0.9999    0.7495 N.am      1 UNK        -0.4892 
      5 CA         28.2990   -1.3501   -0.5437 C.3       1 UNK         0.0835 
      6 C6         28.6565   -2.7949   -0.9774 C.3       12 UNK        -0.0855 
      7 S7         30.4571   -3.0627   -1.0649 S.3       12 UNK        -0.2931 
      8 C8         30.5498   -4.6670   -1.9271 C.3       12 UNK         0.0378 
      9 C9         30.6446   -4.5375   -3.4447 C.ar      12 UNK        -0.0802 
     10 C10        31.5969   -3.6932   -4.0235 C.ar      12 UNK        -0.0944 
     11 C11        31.7507   -3.6279   -5.4111 C.ar      12 UNK        -0.0787 
     12 C12        30.9528   -4.4382   -6.2267 C.ar      12 UNK        -0.0862 
     13 C13        30.0110   -5.3083   -5.6635 C.ar      12 UNK        -0.0733 
     14 C14        29.8493   -5.3367   -4.2730 C.ar      12 UNK        -0.0832 
     15 C15        29.2483   -6.3030   -6.5362 C.3       12 UNK         0.0240 
     16 S16        28.3302   -5.5426   -7.9136 S.3       12 UNK        -0.2522 
     17 C17        26.9531   -4.7288   -7.0372 C.3       12 UNK        -0.0967 
     18 CA         26.6116   -3.3366   -7.6250 C.3       5 UNK         0.0660 
     19 N          25.3042   -2.8636   -7.1533 N.am      5 UNK        -0.4015 
     20 C          24.7234   -1.6933   -7.4556 C.2       4 UNK         0.4946 
     21 O          25.2618   -0.8077   -8.1188 O.2       4 UNK        -0.5353 
     22 CA         23.3140   -1.4380   -6.9093 C.3       4 UNK         0.0277 
     23 CB         22.6308   -2.6671   -6.2698 C.3       4 UNK        -0.1981 
     24 N          23.4296   -0.3664   -5.9330 N.am      4 UNK        -0.4209 
     25 C          22.4917    0.5165   -5.5864 C.2       3 UNK         0.4942 
     26 O          21.3639    0.5514   -6.0820 O.2       3 UNK        -0.5208 
     27 CA         22.8896    1.5014   -4.4652 C.3       3 UNK         0.0250 
     28 CB         21.7425    2.4522   -4.0747 C.3       3 UNK        -0.1990 
     29 N          23.3616    0.8028   -3.2630 N.am      3 UNK        -0.4232 
     30 C          24.5449    0.1891   -3.1266 C.2       2 UNK         0.4993 
     31 O          25.4219    0.1765   -3.9993 O.2       2 UNK        -0.5286 
     32 CA         24.7474   -0.6135   -1.8395 C.3       2 UNK         0.0209 
     33 CB         24.0092   -1.9645   -1.9269 C.3       2 UNK        -0.1931 
     34 N          26.1775   -0.8358   -1.6560 N.am      2 UNK        -0.4546 
     35 C          26.7678   -1.1678   -0.5043 C.2       1 UNK         0.5154 
     36 O          26.1504   -1.3608    0.5474 O.2       1 UNK        -0.5181 
     37 C          27.7558   -2.3272   -7.4017 C.2       5 UNK         0.5014 
     38 O          28.4550   -1.9906   -8.3578 O.2       5 UNK        -0.5248 
     39 N          27.9097   -1.8444   -6.1604 N.am      6 UNK        -0.4434 
     40 CA         28.9793   -0.9150   -5.7902 C.3       6 UNK         0.0363 
     41 CB         29.0515   -0.7707   -4.2643 C.3       6 UNK        -0.1936 
     42 C          28.8462    0.4565   -6.4687 C.2       6 UNK         0.5081 
     43 O          29.8513    1.0147   -6.9083 O.2       6 UNK        -0.5248 
     44 N          27.6068    0.9533   -6.5790 N.am      7 UNK        -0.4718 
     45 CA         27.2729    2.1910   -7.2854 C.3       7 UNK         0.0273 
     46 CB         25.8294    2.5998   -6.9561 C.3       7 UNK        -0.1935 
     47 C          27.4847    2.0818   -8.8047 C.2       7 UNK         0.5018 
     48 O          28.0086    3.0204   -9.4043 O.2       7 UNK        -0.5186 
     49 N          27.1028    0.9380   -9.3918 N.am      8 UNK        -0.4240 
     50 CA         27.3086    0.6155  -10.8061 C.3       8 UNK         0.0235 
     51 CB         26.5149   -0.6491  -11.1723 C.3       8 UNK        -0.2000 
     52 C          28.7943    0.4517  -11.1655 C.2       8 UNK         0.4941 
     53 O          29.2230    0.9618  -12.2015 O.2       8 UNK        -0.5273 
     54 N          29.5545   -0.2350  -10.3003 N.am      9 UNK        -0.4262 
     55 CA         31.0064   -0.3944  -10.4152 C.3       9 UNK         0.0264 
     56 CB         31.4763   -1.4837   -9.4369 C.3       9 UNK        -0.1955 
     57 C          31.7802    0.9112  -10.1616 C.2       9 UNK         0.5031 
     58 O          32.8634    1.0815  -10.7229 O.2       9 UNK        -0.5390 
     59 N          31.2227    1.7847   -9.3087 N.am      10 UNK        -0.4204 
     60 CA         31.7981    3.0326   -8.7934 C.3       10 UNK         0.0237 
     61 CB         31.9892    4.0687   -9.9214 C.3       10 UNK        -0.1985 
     62 C          33.0735    2.7872   -7.9628 C.2       10 UNK         0.4970 
     63 O          34.0047    3.5940   -8.0059 O.2       10 UNK        -0.4914 
     64 N          33.0953    1.6627   -7.2373 N.am      11 UNK        -0.4285 
     65 CA         34.2025    1.2320   -6.3775 C.3       11 UNK         0.1007 
     66 C          34.2621    1.9973   -5.0250 C.2       11 UNK         0.5703 
     67 N          35.3849    1.9203   -4.3225 N.am      11 UNK        -0.7361 
     68 O          33.3094    2.6486   -4.5986 O.2       11 UNK        -0.4986 
     69 C69        34.2139   -0.3113   -6.2078 C.3       12 UNK        -0.0947 
     70 S70        32.6773   -1.0005   -5.5083 S.3       12 UNK        -0.2240 
     71 C71        32.8337   -2.7423   -6.0162 C.3       12 UNK         0.0194 
     72 H72        30.4970    1.0409    2.5645 H         1 UNK         0.0906 
     73 H73        28.8970    0.8736    3.2926 H         1 UNK         0.0906 
     74 H74        29.9092   -0.5511    3.0477 H         1 UNK         0.0906 
     75 H75        29.2136   -1.7817    1.3062 H         1 UNK         0.3140 
     76 H76        28.7020   -0.6589   -1.2874 H         1 UNK         0.1085 
     77 H77        28.2338   -3.5226   -0.2814 H         1 UNK         0.0836 
     78 H78        28.2266   -3.0204   -1.9555 H         1 UNK         0.0836 
     79 H79        29.6992   -5.2852   -1.6357 H         1 UNK         0.0731 
     80 H80        31.4398   -5.1917   -1.5773 H         1 UNK         0.0731 
     81 H81        32.2360   -3.0938   -3.3894 H         1 UNK         0.1312 
     82 H82        31.0887   -4.4226   -7.2996 H         1 UNK         0.1406 
     83 H83        29.1403   -6.0233   -3.8303 H         1 UNK         0.1631 
     84 H84        28.5542   -6.8971   -5.9395 H         1 UNK         0.0717 
     85 H85        29.9668   -7.0093   -6.9539 H         1 UNK         0.0717 
     86 H86        26.0904   -5.3918   -7.1197 H         1 UNK         0.0934 
     87 H87        27.1747   -4.6581   -5.9705 H         1 UNK         0.0934 
     88 H88        26.5048   -3.4506   -8.7060 H         1 UNK         0.0739 
     89 H89        24.7758   -3.5134   -6.5905 H         1 UNK         0.3093 
     90 H90        22.7064   -1.0951   -7.7495 H         1 UNK         0.0818 
     91 H91        21.6089   -2.4301   -5.9724 H         1 UNK         0.0819 
     92 H92        22.5674   -3.4983   -6.9735 H         1 UNK         0.0819 
     93 H93        23.1543   -3.0136   -5.3778 H         1 UNK         0.0819 
     94 H94        24.3274   -0.2880   -5.4607 H         1 UNK         0.3041 
     95 H95        23.7063    2.1132   -4.8505 H         1 UNK         0.0784 
     96 H96        21.3983    3.0245   -4.9374 H         1 UNK         0.0793 
     97 H97        22.0621    3.1710   -3.3199 H         1 UNK         0.0793 
     98 H98        20.8833    1.9088   -3.6796 H         1 UNK         0.0793 
     99 H99        22.6900    0.7202   -2.5128 H         1 UNK         0.3024 
    100 H100       24.3636   -0.0297   -0.9993 H         1 UNK         0.1171 
    101 H101       24.1220   -2.5423   -1.0095 H         1 UNK         0.0786 
    102 H102       22.9393   -1.8223   -2.0842 H         1 UNK         0.0786 
    103 H103       24.3819   -2.5731   -2.7519 H         1 UNK         0.0786 
    104 H104       26.7249   -0.6484   -2.4863 H         1 UNK         0.2977 
    105 H105       27.2813   -2.1458   -5.4312 H         1 UNK         0.3127 
    106 H106       29.9155   -1.3569   -6.1328 H         1 UNK         0.0770 
    107 H107       28.1373   -0.3414   -3.8566 H         1 UNK         0.0814 
    108 H108       29.8767   -0.1172   -3.9775 H         1 UNK         0.0814 
    109 H109       29.2278   -1.7346   -3.7878 H         1 UNK         0.0814 
    110 H110       26.8390    0.4225   -6.1924 H         1 UNK         0.2983 
    111 H111       27.9390    2.9752   -6.9185 H         1 UNK         0.0947 
    112 H112       25.5583    3.5233   -7.4695 H         1 UNK         0.0806 
    113 H113       25.7102    2.7768   -5.8876 H         1 UNK         0.0806 
    114 H114       25.1118    1.8357   -7.2570 H         1 UNK         0.0806 
    115 H115       26.6189    0.2392   -8.8302 H         1 UNK         0.3000 
    116 H116       26.9151    1.4458  -11.3963 H         1 UNK         0.0850 
    117 H117       26.6408   -0.8987  -12.2266 H         1 UNK         0.0810 
    118 H118       25.4481   -0.5109  -10.9957 H         1 UNK         0.0810 
    119 H119       26.8390   -1.5123  -10.5898 H         1 UNK         0.0810 
    120 H120       29.1052   -0.7002   -9.5121 H         1 UNK         0.3040 
    121 H121       31.2330   -0.7234  -11.4315 H         1 UNK         0.0766 
    122 H122       31.2446   -1.2214   -8.4037 H         1 UNK         0.0812 
    123 H123       32.5548   -1.6331   -9.5034 H         1 UNK         0.0812 
    124 H124       31.0008   -2.4412   -9.6504 H         1 UNK         0.0812 
    125 H125       30.3707    1.4941   -8.8401 H         1 UNK         0.3205 
    126 H126       31.0600    3.4362   -8.0985 H         1 UNK         0.0754 
    127 H127       32.2804    5.0383   -9.5159 H         1 UNK         0.0769 
    128 H128       31.0654    4.2161  -10.4812 H         1 UNK         0.0769 
    129 H129       32.7643    3.7651  -10.6256 H         1 UNK         0.0769 
    130 H130       32.2566    1.0997   -7.1905 H         1 UNK         0.2981 
    131 H131       35.1241    1.4915   -6.9024 H         1 UNK         0.0541 
    132 H132       36.1744    1.3893   -4.6553 H         1 UNK         0.3459 
    133 H133       35.4435    2.4047   -3.4405 H         1 UNK         0.3459 
    134 H134       35.0520   -0.6285   -5.5851 H         1 UNK         0.0612 
    135 H135       34.3800   -0.7722   -7.1829 H         1 UNK         0.0612 
    136 H136       33.8080   -3.1188   -5.7022 H         1 UNK         0.0624 
    137 H137       32.8143   -2.7965   -7.1053 H         1 UNK         0.0624 
@<TRIPOS>BOND
     1    1    2 1    
     2    1   72 1    
     3    1   73 1    
     4    1   74 1    
     5    2    3 2    
     6    2    4 am   BACKBONE|DICT|INTERRES
     7    4    5 1    
     8    4   75 1    
     9    5    6 1    
    10    5   35 1    
    11    5   76 1    
    12    6    7 1    
    13    6   77 1    
    14    6   78 1    
    15    7    8 1    
    16    8    9 1    
    17    8   79 1    
    18    8   80 1    
    19    9   10 ar   
    20    9   14 ar   
    21   10   11 ar   
    22   10   81 1    
    23   11   12 ar   
    24   11   71 1    
    25   12   13 ar   
    26   12   82 1    
    27   13   14 ar   
    28   13   15 1    
    29   14   83 1    
    30   15   16 1    
    31   15   84 1    
    32   15   85 1    
    33   16   17 1    
    34   17   18 1    
    35   17   86 1    
    36   17   87 1    
    37   18   19 1    
    38   18   37 1    
    39   18   88 1    
    40   19   20 am   BACKBONE|DICT|INTERRES
    41   19   89 1    
    42   20   21 2    
    43   20   22 1    
    44   22   23 1    
    45   22   24 1    
    46   22   90 1    
    47   23   91 1    
    48   23   92 1    
    49   23   93 1    
    50   24   25 am   BACKBONE|DICT|INTERRES
    51   24   94 1    
    52   25   26 2    
    53   25   27 1    
    54   27   28 1    
    55   27   29 1    
    56   27   95 1    
    57   28   96 1    
    58   28   97 1    
    59   28   98 1    
    60   29   30 am   BACKBONE|DICT|INTERRES
    61   29   99 1    
    62   30   31 2    
    63   30   32 1    
    64   32   33 1    
    65   32   34 1    
    66   32  100 1    
    67   33  101 1    
    68   33  102 1    
    69   33  103 1    
    70   34   35 am   BACKBONE|DICT|INTERRES
    71   34  104 1    
    72   35   36 2    
    73   37   38 2    
    74   37   39 am   BACKBONE|DICT|INTERRES
    75   39   40 1    
    76   39  105 1    
    77   40   41 1    
    78   40   42 1    
    79   40  106 1    
    80   41  107 1    
    81   41  108 1    
    82   41  109 1    
    83   42   43 2    
    84   42   44 am   BACKBONE|DICT|INTERRES
    85   44   45 1    
    86   44  110 1    
    87   45   46 1    
    88   45   47 1    
    89   45  111 1    
    90   46  112 1    
    91   46  113 1    
    92   46  114 1    
    93   47   48 2    
    94   47   49 am   BACKBONE|DICT|INTERRES
    95   49   50 1    
    96   49  115 1    
    97   50   51 1    
    98   50   52 1    
    99   50  116 1    
   100   51  117 1    
   101   51  118 1    
   102   51  119 1    
   103   52   53 2    
   104   52   54 am   BACKBONE|DICT|INTERRES
   105   54   55 1    
   106   54  120 1    
   107   55   56 1    
   108   55   57 1    
   109   55  121 1    
   110   56  122 1    
   111   56  123 1    
   112   56  124 1    
   113   57   58 2    
   114   57   59 am   BACKBONE|DICT|INTERRES
   115   59   60 1    
   116   59  125 1    
   117   60   61 1    
   118   60   62 1    
   119   60  126 1    
   120   61  127 1    
   121   61  128 1    
   122   61  129 1    
   123   62   63 2    
   124   62   64 am   BACKBONE|DICT|INTERRES
   125   64   65 1    
   126   64  130 1    
   127   65   66 1    
   128   65   69 1    
   129   65  131 1    
   130   66   67 am   BACKBONE|DICT|INTERRES
   131   66   68 2    
   132   67  132 1    
   133   67  133 1    
   134   69   70 1    
   135   69  134 1    
   136   69  135 1    
   137   70   71 1    
   138   71  136 1    
   139   71  137 1    
@<TRIPOS>SUBSTRUCTURE
     1 UNK         1 GROUP             0       ****    0 ROOT    
