@<TRIPOS>MOLECULE
3R137
137   139    1
SMALL
USER_CHARGES


@<TRIPOS>ATOM
      1 CA         27.0788   -6.6022   -0.3965 C.3       0 UNK        -0.2020 
      2 C          27.2425   -5.1441   -0.7961 C.2       0 UNK         0.4855 
      3 O          27.0492   -4.8095   -1.9640 O.2       0 UNK        -0.5197 
      4 N          27.5870   -4.2773    0.1670 N.am      1 UNK        -0.4892 
      5 CA         27.8499   -2.8298    0.0516 C.3       1 UNK         0.0835 
      6 C6         29.0107   -2.4721   -0.9124 C.3       12 UNK        -0.0855 
      7 S7         30.6162   -3.1289   -0.3421 S.3       12 UNK        -0.2931 
      8 C8         30.9057   -4.5191   -1.4863 C.3       12 UNK         0.0378 
      9 C9         30.9761   -4.0770   -2.9420 C.ar      12 UNK        -0.0802 
     10 C10        31.9579   -3.1702   -3.3567 C.ar      12 UNK        -0.0944 
     11 C11        32.0237   -2.7579   -4.6898 C.ar      12 UNK        -0.0787 
     12 C12        31.1012   -3.2669   -5.6059 C.ar      12 UNK        -0.0862 
     13 C13        30.1176   -4.1775   -5.2140 C.ar      12 UNK        -0.0733 
     14 C14        30.0635   -4.5828   -3.8756 C.ar      12 UNK        -0.0832 
     15 C15        29.1649   -4.7336   -6.2717 C.3       12 UNK         0.0240 
     16 S16        27.4399   -4.9660   -5.7240 S.3       12 UNK        -0.2522 
     17 C17        26.9565   -3.2929   -5.1908 C.3       12 UNK        -0.0967 
     18 CA         26.6633   -2.3234   -6.3734 C.3       5 UNK         0.0660 
     19 N          25.3720   -1.6439   -6.2221 N.am      5 UNK        -0.4015 
     20 C          24.7753   -0.8962   -7.1626 C.2       4 UNK         0.4946 
     21 O          25.2238   -0.7284   -8.2952 O.2       4 UNK        -0.5353 
     22 CA         23.4768   -0.1766   -6.7596 C.3       4 UNK         0.0277 
     23 CB         22.2683   -1.1141   -6.9111 C.3       4 UNK        -0.1981 
     24 N          23.5219    0.3541   -5.3952 N.am      4 UNK        -0.4209 
     25 C          24.3555    1.3223   -4.9870 C.2       3 UNK         0.4942 
     26 O          25.1316    1.9165   -5.7325 O.2       3 UNK        -0.5208 
     27 CA         24.3658    1.6446   -3.4837 C.3       3 UNK         0.0250 
     28 CB         23.3080    2.7090   -3.1524 C.3       3 UNK        -0.1990 
     29 N          24.1684    0.4683   -2.6291 N.am      3 UNK        -0.4232 
     30 C          24.9664   -0.6085   -2.6131 C.2       2 UNK         0.4993 
     31 O          25.9442   -0.7526   -3.3540 O.2       2 UNK        -0.5286 
     32 CA         24.5601   -1.7396   -1.6567 C.3       2 UNK         0.0209 
     33 CB         23.6252   -2.7343   -2.3642 C.3       2 UNK        -0.1931 
     34 N          25.7337   -2.4569   -1.1639 N.am      2 UNK        -0.4546 
     35 C          26.6005   -1.9792   -0.2647 C.2       1 UNK         0.5154 
     36 O          26.4391   -0.9091    0.3252 O.2       1 UNK        -0.5181 
     37 C          27.7945   -1.2919   -6.5393 C.2       5 UNK         0.5014 
     38 O          28.5883   -1.3888   -7.4791 O.2       5 UNK        -0.5248 
     39 N          27.8049   -0.3012   -5.6345 N.am      6 UNK        -0.4434 
     40 CA         28.7557    0.8081   -5.6199 C.3       6 UNK         0.0363 
     41 CB         28.5438    1.6565   -4.3577 C.3       6 UNK        -0.1936 
     42 C          28.7017    1.6746   -6.8871 C.2       6 UNK         0.5081 
     43 O          29.7546    2.0683   -7.3898 O.2       6 UNK        -0.5248 
     44 N          27.4878    1.9348   -7.3910 N.am      7 UNK        -0.4718 
     45 CA         27.2431    2.6457   -8.6449 C.3       7 UNK         0.0273 
     46 CB         25.7611    3.0419   -8.7376 C.3       7 UNK        -0.1935 
     47 C          27.6647    1.8339   -9.8789 C.2       7 UNK         0.5018 
     48 O          28.3067    2.3952  -10.7664 O.2       7 UNK        -0.5186 
     49 N          27.3135    0.5384   -9.9149 N.am      8 UNK        -0.4240 
     50 CA         27.6206   -0.3753  -11.0211 C.3       8 UNK         0.0235 
     51 CB         26.9043   -1.7194  -10.8125 C.3       8 UNK        -0.2000 
     52 C          29.1262   -0.5957  -11.2283 C.2       8 UNK         0.4941 
     53 O          29.5894   -0.5567  -12.3690 O.2       8 UNK        -0.5273 
     54 N          29.8636   -0.8043  -10.1293 N.am      9 UNK        -0.4262 
     55 CA         31.3223   -0.9508  -10.1493 C.3       9 UNK         0.0264 
     56 CB         31.7597   -1.7202   -8.8989 C.3       9 UNK        -0.1955 
     57 C          32.0712    0.3905  -10.2271 C.2       9 UNK         0.5031 
     58 O          33.2649    0.3872  -10.5308 O.2       9 UNK        -0.5390 
     59 N          31.3770    1.4952   -9.9169 N.am      10 UNK        -0.4204 
     60 CA         31.8829    2.8658   -9.7824 C.3       10 UNK         0.0237 
     61 CB         32.4185    3.4014  -11.1277 C.3       10 UNK        -0.1985 
     62 C          32.8835    3.0402   -8.6201 C.2       10 UNK         0.4970 
     63 O          33.6863    3.9750   -8.6481 O.2       10 UNK        -0.4914 
     64 N          32.8081    2.1600   -7.6117 N.am      11 UNK        -0.4285 
     65 CA         33.5690    2.2587   -6.3579 C.3       11 UNK         0.1007 
     66 C          32.9319    3.2277   -5.3191 C.2       11 UNK         0.5703 
     67 N          31.6825    3.6501   -5.4862 N.am      11 UNK        -0.7361 
     68 O          33.5916    3.6185   -4.3588 O.2       11 UNK        -0.4986 
     69 C69        33.8939    0.8619   -5.7593 C.3       12 UNK        -0.0947 
     70 S70        32.4287   -0.0840   -5.2267 S.3       12 UNK        -0.2240 
     71 C71        33.0912   -1.7734   -5.1476 C.3       12 UNK         0.0194 
     72 H72        27.7599   -7.2261   -0.9746 H         1 UNK         0.0906 
     73 H73        27.2864   -6.7631    0.6612 H         1 UNK         0.0906 
     74 H74        26.0603   -6.9332   -0.5975 H         1 UNK         0.0906 
     75 H75        27.6967   -4.6357    1.1060 H         1 UNK         0.3140 
     76 H76        28.1582   -2.5191    1.0517 H         1 UNK         0.1085 
     77 H77        28.7925   -2.8081   -1.9268 H         1 UNK         0.0836 
     78 H78        29.1253   -1.3884   -0.9840 H         1 UNK         0.0836 
     79 H79        31.8463   -5.0027   -1.2192 H         1 UNK         0.0731 
     80 H80        30.1272   -5.2685   -1.3419 H         1 UNK         0.0731 
     81 H81        32.6643   -2.7796   -2.6369 H         1 UNK         0.1312 
     82 H82        31.1499   -2.9552   -6.6348 H         1 UNK         0.1406 
     83 H83        29.3063   -5.2881   -3.5600 H         1 UNK         0.1631 
     84 H84        29.1555   -4.0900   -7.1527 H         1 UNK         0.0717 
     85 H85        29.5508   -5.6974   -6.6052 H         1 UNK         0.0717 
     86 H86        26.0651   -3.4288   -4.5780 H         1 UNK         0.0934 
     87 H87        27.7011   -2.9047   -4.4919 H         1 UNK         0.0934 
     88 H88        26.6060   -2.8928   -7.3037 H         1 UNK         0.0739 
     89 H89        24.9727   -1.6541   -5.2953 H         1 UNK         0.3093 
     90 H90        23.3426    0.6662   -7.4412 H         1 UNK         0.0818 
     91 H91        21.3328   -0.5907   -6.7125 H         1 UNK         0.0819 
     92 H92        22.2069   -1.5077   -7.9268 H         1 UNK         0.0819 
     93 H93        22.3268   -1.9674   -6.2342 H         1 UNK         0.0819 
     94 H94        22.9056   -0.0668   -4.7155 H         1 UNK         0.3041 
     95 H95        25.3487    2.0568   -3.2466 H         1 UNK         0.0784 
     96 H96        23.4488    3.6014   -3.7643 H         1 UNK         0.0793 
     97 H97        22.2956    2.3459   -3.3341 H         1 UNK         0.0793 
     98 H98        23.3716    3.0215   -2.1099 H         1 UNK         0.0793 
     99 H99        23.3794    0.4996   -1.9988 H         1 UNK         0.3024 
    100 H100       24.0359   -1.3086   -0.8005 H         1 UNK         0.1171 
    101 H101       23.3039   -3.5239   -1.6846 H         1 UNK         0.0786 
    102 H102       22.7248   -2.2387   -2.7295 H         1 UNK         0.0786 
    103 H103       24.1076   -3.2091   -3.2187 H         1 UNK         0.0786 
    104 H104       25.9914   -3.3224   -1.6328 H         1 UNK         0.2977 
    105 H105       27.1191   -0.3276   -4.8839 H         1 UNK         0.3127 
    106 H106       29.7476    0.3655   -5.5719 H         1 UNK         0.0770 
    107 H107       27.5634    2.1327   -4.3521 H         1 UNK         0.0814 
    108 H108       29.2918    2.4470   -4.2908 H         1 UNK         0.0814 
    109 H109       28.6295    1.0520   -3.4544 H         1 UNK         0.0814 
    110 H110       26.6681    1.6478   -6.8620 H         1 UNK         0.2983 
    111 H111       27.8388    3.5613   -8.6325 H         1 UNK         0.0947 
    112 H112       25.5566    3.5809   -9.6636 H         1 UNK         0.0806 
    113 H113       25.4744    3.6944   -7.9125 H         1 UNK         0.0806 
    114 H114       25.1074    2.1692   -8.7143 H         1 UNK         0.0806 
    115 H115       26.7488    0.1584   -9.1592 H         1 UNK         0.3000 
    116 H116       27.2290    0.0762  -11.9350 H         1 UNK         0.0850 
    117 H117       27.1402   -2.4194  -11.6152 H         1 UNK         0.0810 
    118 H118       25.8217   -1.5926  -10.8039 H         1 UNK         0.0810 
    119 H119       27.1934   -2.1893   -9.8715 H         1 UNK         0.0810 
    120 H120       29.3986   -0.8736   -9.2261 H         1 UNK         0.3040 
    121 H121       31.6093   -1.5373  -11.0249 H         1 UNK         0.0766 
    122 H122       31.3033   -2.7096   -8.8749 H         1 UNK         0.0812 
    123 H123       31.4782   -1.1852   -7.9912 H         1 UNK         0.0812 
    124 H124       32.8414   -1.8600   -8.8763 H         1 UNK         0.0812 
    125 H125       30.4043    1.3780   -9.6641 H         1 UNK         0.3205 
    126 H126       31.0152    3.4711   -9.5156 H         1 UNK         0.0754 
    127 H127       32.6365    4.4682  -11.0655 H         1 UNK         0.0769 
    128 H128       31.6870    3.2681  -11.9250 H         1 UNK         0.0769 
    129 H129       33.3389    2.8999  -11.4278 H         1 UNK         0.0769 
    130 H130       32.0685    1.4723   -7.6283 H         1 UNK         0.2981 
    131 H131       34.5349    2.7049   -6.6019 H         1 UNK         0.0541 
    132 H132       31.1231    3.2974   -6.2520 H         1 UNK         0.3459 
    133 H133       31.2850    4.2899   -4.8179 H         1 UNK         0.3459 
    134 H134       34.5649    0.9626   -4.9044 H         1 UNK         0.0612 
    135 H135       34.4388    0.2715   -6.4977 H         1 UNK         0.0612 
    136 H136       33.9455   -1.7940   -4.4691 H         1 UNK         0.0624 
    137 H137       33.4657   -2.0627   -6.1307 H         1 UNK         0.0624 
@<TRIPOS>BOND
     1    1    2 1    
     2    1   72 1    
     3    1   73 1    
     4    1   74 1    
     5    2    3 2    
     6    2    4 am   BACKBONE|DICT|INTERRES
     7    4    5 1    
     8    4   75 1    
     9    5    6 1    
    10    5   35 1    
    11    5   76 1    
    12    6    7 1    
    13    6   77 1    
    14    6   78 1    
    15    7    8 1    
    16    8    9 1    
    17    8   79 1    
    18    8   80 1    
    19    9   10 ar   
    20    9   14 ar   
    21   10   11 ar   
    22   10   81 1    
    23   11   12 ar   
    24   11   71 1    
    25   12   13 ar   
    26   12   82 1    
    27   13   14 ar   
    28   13   15 1    
    29   14   83 1    
    30   15   16 1    
    31   15   84 1    
    32   15   85 1    
    33   16   17 1    
    34   17   18 1    
    35   17   86 1    
    36   17   87 1    
    37   18   19 1    
    38   18   37 1    
    39   18   88 1    
    40   19   20 am   BACKBONE|DICT|INTERRES
    41   19   89 1    
    42   20   21 2    
    43   20   22 1    
    44   22   23 1    
    45   22   24 1    
    46   22   90 1    
    47   23   91 1    
    48   23   92 1    
    49   23   93 1    
    50   24   25 am   BACKBONE|DICT|INTERRES
    51   24   94 1    
    52   25   26 2    
    53   25   27 1    
    54   27   28 1    
    55   27   29 1    
    56   27   95 1    
    57   28   96 1    
    58   28   97 1    
    59   28   98 1    
    60   29   30 am   BACKBONE|DICT|INTERRES
    61   29   99 1    
    62   30   31 2    
    63   30   32 1    
    64   32   33 1    
    65   32   34 1    
    66   32  100 1    
    67   33  101 1    
    68   33  102 1    
    69   33  103 1    
    70   34   35 am   BACKBONE|DICT|INTERRES
    71   34  104 1    
    72   35   36 2    
    73   37   38 2    
    74   37   39 am   BACKBONE|DICT|INTERRES
    75   39   40 1    
    76   39  105 1    
    77   40   41 1    
    78   40   42 1    
    79   40  106 1    
    80   41  107 1    
    81   41  108 1    
    82   41  109 1    
    83   42   43 2    
    84   42   44 am   BACKBONE|DICT|INTERRES
    85   44   45 1    
    86   44  110 1    
    87   45   46 1    
    88   45   47 1    
    89   45  111 1    
    90   46  112 1    
    91   46  113 1    
    92   46  114 1    
    93   47   48 2    
    94   47   49 am   BACKBONE|DICT|INTERRES
    95   49   50 1    
    96   49  115 1    
    97   50   51 1    
    98   50   52 1    
    99   50  116 1    
   100   51  117 1    
   101   51  118 1    
   102   51  119 1    
   103   52   53 2    
   104   52   54 am   BACKBONE|DICT|INTERRES
   105   54   55 1    
   106   54  120 1    
   107   55   56 1    
   108   55   57 1    
   109   55  121 1    
   110   56  122 1    
   111   56  123 1    
   112   56  124 1    
   113   57   58 2    
   114   57   59 am   BACKBONE|DICT|INTERRES
   115   59   60 1    
   116   59  125 1    
   117   60   61 1    
   118   60   62 1    
   119   60  126 1    
   120   61  127 1    
   121   61  128 1    
   122   61  129 1    
   123   62   63 2    
   124   62   64 am   BACKBONE|DICT|INTERRES
   125   64   65 1    
   126   64  130 1    
   127   65   66 1    
   128   65   69 1    
   129   65  131 1    
   130   66   67 am   BACKBONE|DICT|INTERRES
   131   66   68 2    
   132   67  132 1    
   133   67  133 1    
   134   69   70 1    
   135   69  134 1    
   136   69  135 1    
   137   70   71 1    
   138   71  136 1    
   139   71  137 1    
@<TRIPOS>SUBSTRUCTURE
     1 UNK         1 GROUP             0       ****    0 ROOT    
