@<TRIPOS>MOLECULE
3R137
137   139    1
SMALL
USER_CHARGES


@<TRIPOS>ATOM
      1 CA         29.3045   -3.7661    3.4717 C.3       0 UNK        -0.2020 
      2 C          29.3991   -3.3153    2.0215 C.2       0 UNK         0.4855 
      3 O          30.1933   -2.4280    1.7072 O.2       0 UNK        -0.5197 
      4 N          28.6036   -3.9262    1.1350 N.am      1 UNK        -0.4892 
      5 CA         28.5234   -3.5802   -0.2876 C.3       1 UNK         0.0835 
      6 C6         27.9093   -4.7323   -1.1230 C.3       12 UNK        -0.0855 
      7 S7         29.0402   -6.1486   -1.3512 S.3       12 UNK        -0.2931 
      8 C8         30.4731   -5.4483   -2.2562 C.3       12 UNK         0.0378 
      9 C9         30.1029   -4.3902   -3.2923 C.ar      12 UNK        -0.0802 
     10 C10        30.6443   -3.1012   -3.2031 C.ar      12 UNK        -0.0944 
     11 C11        30.2763   -2.1102   -4.1181 C.ar      12 UNK        -0.0787 
     12 C12        29.3700   -2.4216   -5.1332 C.ar      12 UNK        -0.0862 
     13 C13        28.8398   -3.7073   -5.2477 C.ar      12 UNK        -0.0733 
     14 C14        29.2154   -4.6927   -4.3311 C.ar      12 UNK        -0.0832 
     15 C15        27.8574   -4.0123   -6.3638 C.3       12 UNK         0.0240 
     16 S16        26.1922   -3.4165   -5.9372 S.3       12 UNK        -0.2522 
     17 C17        25.5945   -2.8418   -7.5689 C.3       12 UNK        -0.0967 
     18 CA         25.4683   -1.3003   -7.6766 C.3       5 UNK         0.0660 
     19 N          24.5121   -0.7861   -6.6925 N.am      5 UNK        -0.4015 
     20 C          23.9476    0.4258   -6.6557 C.2       4 UNK         0.4946 
     21 O          24.1835    1.3067   -7.4830 O.2       4 UNK        -0.5353 
     22 CA         23.0054    0.7339   -5.4735 C.3       4 UNK         0.0277 
     23 CB         21.5305    0.5535   -5.8821 C.3       4 UNK        -0.1981 
     24 N          23.3165    0.0071   -4.2283 N.am      4 UNK        -0.4209 
     25 C          23.2281   -1.3057   -3.9671 C.2       3 UNK         0.4942 
     26 O          22.8421   -2.1391   -4.7875 O.2       3 UNK        -0.5208 
     27 CA         23.7463   -1.7641   -2.5914 C.3       3 UNK         0.0250 
     28 CB         23.4106   -3.2378   -2.2947 C.3       3 UNK        -0.1990 
     29 N          25.1968   -1.5860   -2.4914 N.am      3 UNK        -0.4232 
     30 C          25.8224   -0.4210   -2.2750 C.2       2 UNK         0.4993 
     31 O          25.2242    0.6490   -2.1429 O.2       2 UNK        -0.5286 
     32 CA         27.3636   -0.4513   -2.2376 C.3       2 UNK         0.0209 
     33 CB         27.9681    0.7591   -1.4952 C.3       2 UNK        -0.1931 
     34 N          27.9376   -1.7048   -1.7296 N.am      2 UNK        -0.4546 
     35 C          27.7496   -2.2664   -0.5245 C.2       1 UNK         0.5154 
     36 O          26.9961   -1.8170    0.3430 O.2       1 UNK        -0.5181 
     37 C          26.8480   -0.5987   -7.6680 C.2       5 UNK         0.5014 
     38 O          27.6699   -0.9002   -8.5339 O.2       5 UNK        -0.5248 
     39 N          27.0863    0.3299   -6.7275 N.am      6 UNK        -0.4434 
     40 CA         28.2961    1.1529   -6.6025 C.3       6 UNK         0.0363 
     41 CB         28.1266    2.1311   -5.4291 C.3       6 UNK        -0.1936 
     42 C          28.6680    1.9262   -7.8772 C.2       6 UNK         0.5081 
     43 O          29.8555    2.0595   -8.1714 O.2       6 UNK        -0.5248 
     44 N          27.6549    2.3923   -8.6197 N.am      7 UNK        -0.4718 
     45 CA         27.8205    3.0827   -9.9007 C.3       7 UNK         0.0273 
     46 CB         26.5077    3.7944  -10.2643 C.3       7 UNK        -0.1935 
     47 C          28.2592    2.1470  -11.0413 C.2       7 UNK         0.5018 
     48 O          28.9740    2.5921  -11.9391 O.2       7 UNK        -0.5186 
     49 N          27.8330    0.8771  -10.9875 N.am      8 UNK        -0.4240 
     50 CA         28.1949   -0.1599  -11.9562 C.3       8 UNK         0.0235 
     51 CB         27.1133   -1.2534  -11.9752 C.3       8 UNK        -0.2000 
     52 C          29.5740   -0.7582  -11.6445 C.2       8 UNK         0.4941 
     53 O          30.3714   -0.9571  -12.5613 O.2       8 UNK        -0.5273 
     54 N          29.8357   -1.0117  -10.3547 N.am      9 UNK        -0.4262 
     55 CA         31.1139   -1.5061   -9.8376 C.3       9 UNK         0.0264 
     56 CB         30.8972   -2.0310   -8.4109 C.3       9 UNK        -0.1955 
     57 C          32.2393   -0.4545   -9.8587 C.2       9 UNK         0.5031 
     58 O          33.4091   -0.8374   -9.8101 O.2       9 UNK        -0.5390 
     59 N          31.8676    0.8331   -9.9249 N.am      10 UNK        -0.4204 
     60 CA         32.7242    2.0223   -9.8820 C.3       10 UNK         0.0237 
     61 CB         33.6741    2.0782  -11.0981 C.3       10 UNK        -0.1985 
     62 C          33.4449    2.1582   -8.5282 C.2       10 UNK         0.4970 
     63 O          34.6591    2.3677   -8.4881 O.2       10 UNK        -0.4914 
     64 N          32.6717    2.0331   -7.4419 N.am      11 UNK        -0.4285 
     65 CA         33.1512    2.1661   -6.0556 C.3       11 UNK         0.1007 
     66 C          33.4612    3.6294   -5.6231 C.2       11 UNK         0.5703 
     67 N          33.0354    4.6489   -6.3605 N.am      11 UNK        -0.7361 
     68 O          34.1087    3.8423   -4.6007 O.2       11 UNK        -0.4986 
     69 C69        32.1934    1.4885   -5.0414 C.3       12 UNK        -0.0947 
     70 S70        31.9792   -0.2953   -5.3387 S.3       12 UNK        -0.2240 
     71 C71        30.8211   -0.6943   -3.9958 C.3       12 UNK         0.0194 
     72 H72        28.5772   -4.5670    3.6039 H         1 UNK         0.0906 
     73 H73        30.2730   -4.1279    3.8163 H         1 UNK         0.0906 
     74 H74        29.0075   -2.9307    4.1051 H         1 UNK         0.0906 
     75 H75        27.9590   -4.6368    1.4507 H         1 UNK         0.3140 
     76 H76        29.5421   -3.3953   -0.6295 H         1 UNK         0.1085 
     77 H77        26.9947   -5.0957   -0.6505 H         1 UNK         0.0836 
     78 H78        27.5984   -4.3995   -2.1143 H         1 UNK         0.0836 
     79 H79        31.1722   -5.0395   -1.5248 H         1 UNK         0.0731 
     80 H80        31.0031   -6.2609   -2.7548 H         1 UNK         0.0731 
     81 H81        31.3418   -2.8629   -2.4111 H         1 UNK         0.1312 
     82 H82        29.0732   -1.6645   -5.8422 H         1 UNK         0.1406 
     83 H83        28.7986   -5.6882   -4.4071 H         1 UNK         0.1631 
     84 H84        27.8169   -5.0831   -6.5686 H         1 UNK         0.0717 
     85 H85        28.2080   -3.5364   -7.2800 H         1 UNK         0.0717 
     86 H86        26.2239   -3.2345   -8.3698 H         1 UNK         0.0934 
     87 H87        24.6158   -3.2948   -7.7353 H         1 UNK         0.0934 
     88 H88        25.0430   -1.0824   -8.6584 H         1 UNK         0.0739 
     89 H89        24.1985   -1.4558   -5.9957 H         1 UNK         0.3093 
     90 H90        23.1512    1.7893   -5.2373 H         1 UNK         0.0818 
     91 H91        20.8575    0.8302   -5.0706 H         1 UNK         0.0819 
     92 H92        21.2847    1.1859   -6.7363 H         1 UNK         0.0819 
     93 H93        21.3065   -0.4745   -6.1683 H         1 UNK         0.0819 
     94 H94        23.7416    0.5709   -3.4962 H         1 UNK         0.3041 
     95 H95        23.2578   -1.1499   -1.8317 H         1 UNK         0.0784 
     96 H96        22.3351   -3.4116   -2.3497 H         1 UNK         0.0793 
     97 H97        23.8871   -3.9136   -3.0066 H         1 UNK         0.0793 
     98 H98        23.7334   -3.5238   -1.2934 H         1 UNK         0.0793 
     99 H99        25.7603   -2.4112   -2.6327 H         1 UNK         0.3024 
    100 H100       27.6713   -0.3867   -3.2813 H         1 UNK         0.1171 
    101 H101       29.0574    0.7424   -1.5296 H         1 UNK         0.0786 
    102 H102       27.6469    1.7001   -1.9434 H         1 UNK         0.0786 
    103 H103       27.6664    0.7796   -0.4475 H         1 UNK         0.0786 
    104 H104       28.5588   -2.1780   -2.3742 H         1 UNK         0.2977 
    105 H105       26.3411    0.5262   -6.0771 H         1 UNK         0.3127 
    106 H106       29.1340    0.4921   -6.3825 H         1 UNK         0.0770 
    107 H107       28.9938    2.7855   -5.3327 H         1 UNK         0.0814 
    108 H108       28.0144    1.6077   -4.4820 H         1 UNK         0.0814 
    109 H109       27.2546    2.7728   -5.5619 H         1 UNK         0.0814 
    110 H110       26.7088    2.2393   -8.2968 H         1 UNK         0.2983 
    111 H111       28.5988    3.8402   -9.7819 H         1 UNK         0.0947 
    112 H112       26.6041    4.3334  -11.2080 H         1 UNK         0.0806 
    113 H113       26.2284    4.5239   -9.5039 H         1 UNK         0.0806 
    114 H114       25.6817    3.0901  -10.3733 H         1 UNK         0.0806 
    115 H115       27.3072    0.5784  -10.1774 H         1 UNK         0.3000 
    116 H116       28.2398    0.2866  -12.9522 H         1 UNK         0.0850 
    117 H117       27.3508   -2.0205  -12.7134 H         1 UNK         0.0810 
    118 H118       26.1390   -0.8418  -12.2390 H         1 UNK         0.0810 
    119 H119       27.0163   -1.7514  -11.0099 H         1 UNK         0.0810 
    120 H120       29.0891   -0.8789   -9.6736 H         1 UNK         0.3040 
    121 H121       31.4369   -2.3401  -10.4641 H         1 UNK         0.0766 
    122 H122       30.4961   -1.2538   -7.7609 H         1 UNK         0.0812 
    123 H123       31.8319   -2.3782   -7.9682 H         1 UNK         0.0812 
    124 H124       30.2029   -2.8701   -8.4004 H         1 UNK         0.0812 
    125 H125       30.8752    1.0250   -9.8742 H         1 UNK         0.3205 
    126 H126       32.0525    2.8791   -9.9552 H         1 UNK         0.0754 
    127 H127       34.2153    3.0247  -11.1253 H         1 UNK         0.0769 
    128 H128       33.1226    1.9929  -12.0344 H         1 UNK         0.0769 
    129 H129       34.4179    1.2812  -11.0730 H         1 UNK         0.0769 
    130 H130       31.6723    1.9013   -7.5698 H         1 UNK         0.2981 
    131 H131       34.1044    1.6373   -5.9950 H         1 UNK         0.0541 
    132 H132       32.4988    4.4859   -7.1968 H         1 UNK         0.3459 
    133 H133       33.2482    5.5903   -6.0707 H         1 UNK         0.3459 
    134 H134       31.2145    1.9681   -5.0693 H         1 UNK         0.0612 
    135 H135       32.5672    1.6069   -4.0224 H         1 UNK         0.0612 
    136 H136       31.3240   -0.5534   -3.0379 H         1 UNK         0.0624 
    137 H137       29.9914    0.0125   -4.0155 H         1 UNK         0.0624 
@<TRIPOS>BOND
     1    1    2 1    
     2    1   72 1    
     3    1   73 1    
     4    1   74 1    
     5    2    3 2    
     6    2    4 am   BACKBONE|DICT|INTERRES
     7    4    5 1    
     8    4   75 1    
     9    5    6 1    
    10    5   35 1    
    11    5   76 1    
    12    6    7 1    
    13    6   77 1    
    14    6   78 1    
    15    7    8 1    
    16    8    9 1    
    17    8   79 1    
    18    8   80 1    
    19    9   10 ar   
    20    9   14 ar   
    21   10   11 ar   
    22   10   81 1    
    23   11   12 ar   
    24   11   71 1    
    25   12   13 ar   
    26   12   82 1    
    27   13   14 ar   
    28   13   15 1    
    29   14   83 1    
    30   15   16 1    
    31   15   84 1    
    32   15   85 1    
    33   16   17 1    
    34   17   18 1    
    35   17   86 1    
    36   17   87 1    
    37   18   19 1    
    38   18   37 1    
    39   18   88 1    
    40   19   20 am   BACKBONE|DICT|INTERRES
    41   19   89 1    
    42   20   21 2    
    43   20   22 1    
    44   22   23 1    
    45   22   24 1    
    46   22   90 1    
    47   23   91 1    
    48   23   92 1    
    49   23   93 1    
    50   24   25 am   BACKBONE|DICT|INTERRES
    51   24   94 1    
    52   25   26 2    
    53   25   27 1    
    54   27   28 1    
    55   27   29 1    
    56   27   95 1    
    57   28   96 1    
    58   28   97 1    
    59   28   98 1    
    60   29   30 am   BACKBONE|DICT|INTERRES
    61   29   99 1    
    62   30   31 2    
    63   30   32 1    
    64   32   33 1    
    65   32   34 1    
    66   32  100 1    
    67   33  101 1    
    68   33  102 1    
    69   33  103 1    
    70   34   35 am   BACKBONE|DICT|INTERRES
    71   34  104 1    
    72   35   36 2    
    73   37   38 2    
    74   37   39 am   BACKBONE|DICT|INTERRES
    75   39   40 1    
    76   39  105 1    
    77   40   41 1    
    78   40   42 1    
    79   40  106 1    
    80   41  107 1    
    81   41  108 1    
    82   41  109 1    
    83   42   43 2    
    84   42   44 am   BACKBONE|DICT|INTERRES
    85   44   45 1    
    86   44  110 1    
    87   45   46 1    
    88   45   47 1    
    89   45  111 1    
    90   46  112 1    
    91   46  113 1    
    92   46  114 1    
    93   47   48 2    
    94   47   49 am   BACKBONE|DICT|INTERRES
    95   49   50 1    
    96   49  115 1    
    97   50   51 1    
    98   50   52 1    
    99   50  116 1    
   100   51  117 1    
   101   51  118 1    
   102   51  119 1    
   103   52   53 2    
   104   52   54 am   BACKBONE|DICT|INTERRES
   105   54   55 1    
   106   54  120 1    
   107   55   56 1    
   108   55   57 1    
   109   55  121 1    
   110   56  122 1    
   111   56  123 1    
   112   56  124 1    
   113   57   58 2    
   114   57   59 am   BACKBONE|DICT|INTERRES
   115   59   60 1    
   116   59  125 1    
   117   60   61 1    
   118   60   62 1    
   119   60  126 1    
   120   61  127 1    
   121   61  128 1    
   122   61  129 1    
   123   62   63 2    
   124   62   64 am   BACKBONE|DICT|INTERRES
   125   64   65 1    
   126   64  130 1    
   127   65   66 1    
   128   65   69 1    
   129   65  131 1    
   130   66   67 am   BACKBONE|DICT|INTERRES
   131   66   68 2    
   132   67  132 1    
   133   67  133 1    
   134   69   70 1    
   135   69  134 1    
   136   69  135 1    
   137   70   71 1    
   138   71  136 1    
   139   71  137 1    
@<TRIPOS>SUBSTRUCTURE
     1 UNK         1 GROUP             0       ****    0 ROOT    
