@<TRIPOS>MOLECULE
3R137
137   139    1
SMALL
USER_CHARGES


@<TRIPOS>ATOM
      1 CA         31.6954   -1.0353   -0.0859 C.3       0 UNK        -0.2020 
      2 C          30.2984   -1.6316   -0.1631 C.2       0 UNK         0.4855 
      3 O          29.6048   -1.6905    0.8524 O.2       0 UNK        -0.5197 
      4 N          29.8883   -2.0586   -1.3653 N.am      1 UNK        -0.4892 
      5 CA         28.5679   -2.6130   -1.7051 C.3       1 UNK         0.0835 
      6 C6         28.2193   -3.9342   -0.9556 C.3       12 UNK        -0.0855 
      7 S7         29.5354   -5.1976   -0.9444 S.3       12 UNK        -0.2931 
      8 C8         29.2963   -6.0201   -2.5553 C.3       12 UNK         0.0378 
      9 C9         30.0276   -5.3604   -3.7247 C.ar      12 UNK        -0.0802 
     10 C10        31.2337   -4.6686   -3.5517 C.ar      12 UNK        -0.0944 
     11 C11        31.9233   -4.1424   -4.6473 C.ar      12 UNK        -0.0787 
     12 C12        31.3983   -4.3084   -5.9334 C.ar      12 UNK        -0.0862 
     13 C13        30.2074   -5.0182   -6.1267 C.ar      12 UNK        -0.0733 
     14 C14        29.5260   -5.5311   -5.0182 C.ar      12 UNK        -0.0832 
     15 C15        29.6977   -5.3064   -7.5350 C.3       12 UNK         0.0240 
     16 S16        28.0095   -4.6880   -7.8225 S.3       12 UNK        -0.2522 
     17 C17        28.3334   -2.8993   -7.8830 C.3       12 UNK        -0.0967 
     18 CA         27.0464   -2.0473   -8.0316 C.3       5 UNK         0.0660 
     19 N          26.0461   -2.3320   -6.9876 N.am      5 UNK        -0.4015 
     20 C          26.1576   -2.1854   -5.6610 C.2       4 UNK         0.4946 
     21 O          27.0840   -1.5959   -5.0982 O.2       4 UNK        -0.5353 
     22 CA         25.0627   -2.8446   -4.8146 C.3       4 UNK         0.0277 
     23 CB         25.5949   -4.1453   -4.1914 C.3       4 UNK        -0.1981 
     24 N          24.6358   -1.9380   -3.7529 N.am      4 UNK        -0.4209 
     25 C          23.7110   -0.9789   -3.9026 C.2       3 UNK         0.4942 
     26 O          23.0626   -0.8065   -4.9354 O.2       3 UNK        -0.5208 
     27 CA         23.4729   -0.0507   -2.7003 C.3       3 UNK         0.0250 
     28 CB         22.4047   -0.6384   -1.7642 C.3       3 UNK        -0.1990 
     29 N          24.7096    0.1629   -1.9513 N.am      3 UNK        -0.4232 
     30 C          25.6601    1.0397   -2.2886 C.2       2 UNK         0.4993 
     31 O          25.5162    1.9009   -3.1546 O.2       2 UNK        -0.5286 
     32 CA         26.9933    0.9445   -1.5287 C.3       2 UNK         0.0209 
     33 CB         26.8024    1.1626   -0.0141 C.3       2 UNK        -0.1931 
     34 N          27.7669   -0.2795   -1.7868 N.am      2 UNK        -0.4546 
     35 C          27.4424   -1.5606   -1.5457 C.2       1 UNK         0.5154 
     36 O          26.3196   -1.9239   -1.1847 O.2       1 UNK        -0.5181 
     37 C          27.4309   -0.5633   -8.2251 C.2       5 UNK         0.5014 
     38 O          27.9441   -0.2235   -9.2938 O.2       5 UNK        -0.5248 
     39 N          27.2175    0.2909   -7.2161 N.am      6 UNK        -0.4434 
     40 CA         27.7355    1.6605   -7.1209 C.3       6 UNK         0.0363 
     41 CB         27.3450    2.2598   -5.7654 C.3       6 UNK        -0.1936 
     42 C          27.3367    2.6084   -8.2621 C.2       6 UNK         0.5081 
     43 O          28.0772    3.5503   -8.5416 O.2       6 UNK        -0.5248 
     44 N          26.2127    2.3232   -8.9316 N.am      7 UNK        -0.4718 
     45 CA         25.7492    3.0318  -10.1275 C.3       7 UNK         0.0273 
     46 CB         24.3388    2.5367  -10.4869 C.3       7 UNK        -0.1935 
     47 C          26.6911    2.8986  -11.3416 C.2       7 UNK         0.5018 
     48 O          26.6404    3.7568  -12.2241 O.2       7 UNK        -0.5186 
     49 N          27.5181    1.8433  -11.3714 N.am      8 UNK        -0.4240 
     50 CA         28.4903    1.5756  -12.4321 C.3       8 UNK         0.0235 
     51 CB         28.0923    0.2863  -13.1708 C.3       8 UNK        -0.2000 
     52 C          29.9211    1.4602  -11.8872 C.2       8 UNK         0.4941 
     53 O          30.8395    2.0073  -12.4983 O.2       8 UNK        -0.5273 
     54 N          30.0983    0.7389  -10.7720 N.am      9 UNK        -0.4262 
     55 CA         31.4083    0.3531  -10.2387 C.3       9 UNK         0.0264 
     56 CB         31.3053   -1.0811   -9.6907 C.3       9 UNK        -0.1955 
     57 C          31.9377    1.2854   -9.1379 C.2       9 UNK         0.5031 
     58 O          33.0451    1.0452   -8.6550 O.2       9 UNK        -0.5390 
     59 N          31.1404    2.2711   -8.6972 N.am      10 UNK        -0.4204 
     60 CA         31.3639    3.1935   -7.5664 C.3       10 UNK         0.0237 
     61 CB         32.6270    4.0534   -7.7700 C.3       10 UNK        -0.1985 
     62 C          31.3644    2.5231   -6.1751 C.2       10 UNK         0.4970 
     63 O          30.8287    3.1062   -5.2331 O.2       10 UNK        -0.4914 
     64 N          31.9379    1.3187   -6.0760 N.am      11 UNK        -0.4285 
     65 CA         31.9349    0.4335   -4.9048 C.3       11 UNK         0.1007 
     66 C          30.5049    0.0239   -4.4621 C.2       11 UNK         0.5703 
     67 N          29.7189   -0.5595   -5.3553 N.am      11 UNK        -0.7361 
     68 O          30.1217    0.2251   -3.3132 O.2       11 UNK        -0.4986 
     69 C69        32.8321   -0.8021   -5.1769 C.3       12 UNK        -0.0947 
     70 S70        33.1483   -1.8203   -3.6984 S.3       12 UNK        -0.2240 
     71 C71        33.2790   -3.4792   -4.4354 C.3       12 UNK         0.0194 
     72 H72        32.3884   -1.7555    0.3481 H         1 UNK         0.0906 
     73 H73        32.0670   -0.7491   -1.0695 H         1 UNK         0.0906 
     74 H74        31.6912   -0.1435    0.5404 H         1 UNK         0.0906 
     75 H75        30.5080   -1.9390   -2.1556 H         1 UNK         0.3140 
     76 H76        28.6082   -2.8390   -2.7723 H         1 UNK         0.1085 
     77 H77        27.9857   -3.7177    0.0885 H         1 UNK         0.0836 
     78 H78        27.3129   -4.3813   -1.3667 H         1 UNK         0.0836 
     79 H79        28.2284   -6.0964   -2.7657 H         1 UNK         0.0731 
     80 H80        29.6633   -7.0435   -2.4686 H         1 UNK         0.0731 
     81 H81        31.6623   -4.5604   -2.5653 H         1 UNK         0.1312 
     82 H82        31.9417   -3.9262   -6.7867 H         1 UNK         0.1406 
     83 H83        28.6153   -6.0944   -5.1719 H         1 UNK         0.1631 
     84 H84        29.7033   -6.3858   -7.6923 H         1 UNK         0.0717 
     85 H85        30.3658   -4.8859   -8.2883 H         1 UNK         0.0717 
     86 H86        28.8810   -2.6195   -6.9823 H         1 UNK         0.0934 
     87 H87        29.0040   -2.7262   -8.7257 H         1 UNK         0.0934 
     88 H88        26.5692   -2.3415   -8.9678 H         1 UNK         0.0739 
     89 H89        25.2203   -2.8018   -7.3307 H         1 UNK         0.3093 
     90 H90        24.2055   -3.0901   -5.4456 H         1 UNK         0.0818 
     91 H91        24.8451   -4.6214   -3.5594 H         1 UNK         0.0819 
     92 H92        25.8713   -4.8626   -4.9656 H         1 UNK         0.0819 
     93 H93        26.4831   -3.9686   -3.5856 H         1 UNK         0.0819 
     94 H94        25.1599   -1.9768   -2.8863 H         1 UNK         0.3041 
     95 H95        23.1092    0.9074   -3.0783 H         1 UNK         0.0784 
     96 H96        21.4656   -0.7973   -2.2962 H         1 UNK         0.0793 
     97 H97        22.7127   -1.5994   -1.3500 H         1 UNK         0.0793 
     98 H98        22.1955    0.0338   -0.9319 H         1 UNK         0.0793 
     99 H99        24.9736   -0.5524   -1.2801 H         1 UNK         0.3024 
    100 H100       27.6132    1.7635   -1.8986 H         1 UNK         0.1171 
    101 H101       26.2632    2.0903    0.1825 H         1 UNK         0.0786 
    102 H102       26.2404    0.3532    0.4526 H         1 UNK         0.0786 
    103 H103       27.7636    1.2327    0.4955 H         1 UNK         0.0786 
    104 H104       28.6941   -0.1149   -2.1765 H         1 UNK         0.2977 
    105 H105       26.8587   -0.1117   -6.3565 H         1 UNK         0.3127 
    106 H106       28.8211    1.5770   -7.1479 H         1 UNK         0.0770 
    107 H107       26.2632    2.3568   -5.6695 H         1 UNK         0.0814 
    108 H108       27.7768    3.2533   -5.6366 H         1 UNK         0.0814 
    109 H109       27.7049    1.6456   -4.9394 H         1 UNK         0.0814 
    110 H110       25.6718    1.5251   -8.6312 H         1 UNK         0.2983 
    111 H111       25.6895    4.0945   -9.8822 H         1 UNK         0.0947 
    112 H112       23.9489    3.0668  -11.3572 H         1 UNK         0.0806 
    113 H113       23.6379    2.7035   -9.6688 H         1 UNK         0.0806 
    114 H114       24.3330    1.4722  -10.7248 H         1 UNK         0.0806 
    115 H115       27.4962    1.1901  -10.5943 H         1 UNK         0.3000 
    116 H116       28.4947    2.3903  -13.1596 H         1 UNK         0.0850 
    117 H117       28.8069    0.0508  -13.9608 H         1 UNK         0.0810 
    118 H118       27.1134    0.3874  -13.6396 H         1 UNK         0.0810 
    119 H119       28.0531   -0.5712  -12.4975 H         1 UNK         0.0810 
    120 H120       29.2885    0.3267  -10.3097 H         1 UNK         0.3040 
    121 H121       32.1461    0.3518  -11.0441 H         1 UNK         0.0766 
    122 H122       30.6733   -1.1231   -8.8042 H         1 UNK         0.0812 
    123 H123       32.2865   -1.4638   -9.4062 H         1 UNK         0.0812 
    124 H124       30.8959   -1.7660  -10.4335 H         1 UNK         0.0812 
    125 H125       30.2478    2.3791   -9.1604 H         1 UNK         0.3205 
    126 H126       30.5124    3.8750   -7.5740 H         1 UNK         0.0754 
    127 H127       32.7090    4.8112   -6.9897 H         1 UNK         0.0769 
    128 H128       32.6004    4.5753   -8.7266 H         1 UNK         0.0769 
    129 H129       33.5402    3.4587   -7.7373 H         1 UNK         0.0769 
    130 H130       32.4019    0.9678   -6.9093 H         1 UNK         0.2981 
    131 H131       32.3796    0.9996   -4.0843 H         1 UNK         0.0541 
    132 H132       30.0572   -0.7280   -6.2850 H         1 UNK         0.3459 
    133 H133       28.7862   -0.8652   -5.0912 H         1 UNK         0.3459 
    134 H134       33.8033   -0.4784   -5.5544 H         1 UNK         0.0612 
    135 H135       32.3977   -1.4219   -5.9632 H         1 UNK         0.0612 
    136 H136       33.8372   -3.4210   -5.3711 H         1 UNK         0.0624 
    137 H137       33.8760   -4.1038   -3.7693 H         1 UNK         0.0624 
@<TRIPOS>BOND
     1    1    2 1    
     2    1   72 1    
     3    1   73 1    
     4    1   74 1    
     5    2    3 2    
     6    2    4 am   BACKBONE|DICT|INTERRES
     7    4    5 1    
     8    4   75 1    
     9    5    6 1    
    10    5   35 1    
    11    5   76 1    
    12    6    7 1    
    13    6   77 1    
    14    6   78 1    
    15    7    8 1    
    16    8    9 1    
    17    8   79 1    
    18    8   80 1    
    19    9   10 ar   
    20    9   14 ar   
    21   10   11 ar   
    22   10   81 1    
    23   11   12 ar   
    24   11   71 1    
    25   12   13 ar   
    26   12   82 1    
    27   13   14 ar   
    28   13   15 1    
    29   14   83 1    
    30   15   16 1    
    31   15   84 1    
    32   15   85 1    
    33   16   17 1    
    34   17   18 1    
    35   17   86 1    
    36   17   87 1    
    37   18   19 1    
    38   18   37 1    
    39   18   88 1    
    40   19   20 am   BACKBONE|DICT|INTERRES
    41   19   89 1    
    42   20   21 2    
    43   20   22 1    
    44   22   23 1    
    45   22   24 1    
    46   22   90 1    
    47   23   91 1    
    48   23   92 1    
    49   23   93 1    
    50   24   25 am   BACKBONE|DICT|INTERRES
    51   24   94 1    
    52   25   26 2    
    53   25   27 1    
    54   27   28 1    
    55   27   29 1    
    56   27   95 1    
    57   28   96 1    
    58   28   97 1    
    59   28   98 1    
    60   29   30 am   BACKBONE|DICT|INTERRES
    61   29   99 1    
    62   30   31 2    
    63   30   32 1    
    64   32   33 1    
    65   32   34 1    
    66   32  100 1    
    67   33  101 1    
    68   33  102 1    
    69   33  103 1    
    70   34   35 am   BACKBONE|DICT|INTERRES
    71   34  104 1    
    72   35   36 2    
    73   37   38 2    
    74   37   39 am   BACKBONE|DICT|INTERRES
    75   39   40 1    
    76   39  105 1    
    77   40   41 1    
    78   40   42 1    
    79   40  106 1    
    80   41  107 1    
    81   41  108 1    
    82   41  109 1    
    83   42   43 2    
    84   42   44 am   BACKBONE|DICT|INTERRES
    85   44   45 1    
    86   44  110 1    
    87   45   46 1    
    88   45   47 1    
    89   45  111 1    
    90   46  112 1    
    91   46  113 1    
    92   46  114 1    
    93   47   48 2    
    94   47   49 am   BACKBONE|DICT|INTERRES
    95   49   50 1    
    96   49  115 1    
    97   50   51 1    
    98   50   52 1    
    99   50  116 1    
   100   51  117 1    
   101   51  118 1    
   102   51  119 1    
   103   52   53 2    
   104   52   54 am   BACKBONE|DICT|INTERRES
   105   54   55 1    
   106   54  120 1    
   107   55   56 1    
   108   55   57 1    
   109   55  121 1    
   110   56  122 1    
   111   56  123 1    
   112   56  124 1    
   113   57   58 2    
   114   57   59 am   BACKBONE|DICT|INTERRES
   115   59   60 1    
   116   59  125 1    
   117   60   61 1    
   118   60   62 1    
   119   60  126 1    
   120   61  127 1    
   121   61  128 1    
   122   61  129 1    
   123   62   63 2    
   124   62   64 am   BACKBONE|DICT|INTERRES
   125   64   65 1    
   126   64  130 1    
   127   65   66 1    
   128   65   69 1    
   129   65  131 1    
   130   66   67 am   BACKBONE|DICT|INTERRES
   131   66   68 2    
   132   67  132 1    
   133   67  133 1    
   134   69   70 1    
   135   69  134 1    
   136   69  135 1    
   137   70   71 1    
   138   71  136 1    
   139   71  137 1    
@<TRIPOS>SUBSTRUCTURE
     1 UNK         1 GROUP             0       ****    0 ROOT    
