@<TRIPOS>MOLECULE
3R137
137   139    1
SMALL
USER_CHARGES


@<TRIPOS>ATOM
      1 CA         25.3799   -8.7638    0.4895 C.3       0 UNK        -0.2020 
      2 C          25.8700   -7.3246    0.4350 C.2       0 UNK         0.4855 
      3 O          25.7450   -6.5979    1.4209 O.2       0 UNK        -0.5197 
      4 N          26.4250   -6.9054   -0.7107 N.am      1 UNK        -0.4892 
      5 CA         26.9412   -5.5477   -0.9429 C.3       1 UNK         0.0835 
      6 C6         27.9492   -5.5271   -2.1239 C.3       12 UNK        -0.0855 
      7 S7         29.3158   -4.3520   -1.8498 S.3       12 UNK        -0.2931 
      8 C8         28.9755   -3.0896   -3.1142 C.3       12 UNK         0.0378 
      9 C9         30.0311   -1.9962   -3.0710 C.ar      12 UNK        -0.0802 
     10 C10        31.2638   -2.1852   -3.7036 C.ar      12 UNK        -0.0944 
     11 C11        32.2541   -1.1989   -3.6574 C.ar      12 UNK        -0.0787 
     12 C12        31.9956   -0.0143   -2.9552 C.ar      12 UNK        -0.0862 
     13 C13        30.7635    0.1934   -2.3293 C.ar      12 UNK        -0.0733 
     14 C14        29.7838   -0.8021   -2.3886 C.ar      12 UNK        -0.0832 
     15 C15        30.5033    1.4890   -1.5742 C.3       12 UNK         0.0240 
     16 S16        29.2189    2.5086   -2.3641 S.3       12 UNK        -0.2522 
     17 C17        29.9274    2.8441   -4.0165 C.3       12 UNK        -0.0967 
     18 CA         29.2345    2.0272   -5.1394 C.3       5 UNK         0.0660 
     19 N          27.7721    2.1177   -5.0684 N.am      5 UNK        -0.4015 
     20 C          26.8918    1.5392   -5.8931 C.2       4 UNK         0.4946 
     21 O          27.1797    0.9878   -6.9586 O.2       4 UNK        -0.5353 
     22 CA         25.4225    1.5741   -5.4500 C.3       4 UNK         0.0277 
     23 CB         24.5862    2.4347   -6.4088 C.3       4 UNK        -0.1981 
     24 N          24.8707    0.2200   -5.4128 N.am      4 UNK        -0.4209 
     25 C          25.2333   -0.7278   -4.5395 C.2       3 UNK         0.4942 
     26 O          26.0080   -0.5452   -3.5971 O.2       3 UNK        -0.5208 
     27 CA         24.6447   -2.1211   -4.7733 C.3       3 UNK         0.0250 
     28 CB         25.5882   -2.9794   -5.6355 C.3       3 UNK        -0.1990 
     29 N          24.4413   -2.7649   -3.4803 N.am      3 UNK        -0.4232 
     30 C          23.4452   -3.6028   -3.1779 C.2       2 UNK         0.4993 
     31 O          22.5912   -3.9691   -3.9880 O.2       2 UNK        -0.5286 
     32 CA         23.4230   -4.1420   -1.7356 C.3       2 UNK         0.0209 
     33 CB         22.1604   -4.9697   -1.4276 C.3       2 UNK        -0.1931 
     34 N          24.6022   -4.9675   -1.4709 N.am      2 UNK        -0.4546 
     35 C          25.8156   -4.5053   -1.1376 C.2       1 UNK         0.5154 
     36 O          26.0586   -3.3060   -0.9951 O.2       1 UNK        -0.5181 
     37 C          29.8030    2.3929   -6.5238 C.2       5 UNK         0.5014 
     38 O          30.4941    1.5794   -7.1360 O.2       5 UNK        -0.5248 
     39 N          29.4872    3.6000   -7.0067 N.am      6 UNK        -0.4434 
     40 CA         29.9464    4.0837   -8.3092 C.3       6 UNK         0.0363 
     41 CB         30.0392    5.6180   -8.2800 C.3       6 UNK        -0.1936 
     42 C          29.0413    3.6258   -9.4630 C.2       6 UNK         0.5081 
     43 O          29.5495    3.3308  -10.5441 O.2       6 UNK        -0.5248 
     44 N          27.7215    3.6166   -9.2328 N.am      7 UNK        -0.4718 
     45 CA         26.7207    3.4733  -10.2928 C.3       7 UNK         0.0273 
     46 CB         25.4251    4.1858   -9.8719 C.3       7 UNK        -0.1935 
     47 C          26.4293    2.0226  -10.7052 C.2       7 UNK         0.5018 
     48 O          26.1197    1.8008  -11.8769 O.2       7 UNK        -0.5186 
     49 N          26.4985    1.0750   -9.7601 N.am      8 UNK        -0.4240 
     50 CA         26.1365   -0.3280   -9.9852 C.3       8 UNK         0.0235 
     51 CB         24.9531   -0.7091   -9.0807 C.3       8 UNK        -0.2000 
     52 C          27.3252   -1.2645   -9.7488 C.2       8 UNK         0.4941 
     53 O          27.5818   -2.1278  -10.5886 O.2       8 UNK        -0.5273 
     54 N          28.0318   -1.0870   -8.6235 N.am      9 UNK        -0.4262 
     55 CA         29.1897   -1.9066   -8.2530 C.3       9 UNK         0.0264 
     56 CB         29.4350   -1.7965   -6.7410 C.3       9 UNK        -0.1955 
     57 C          30.4621   -1.5524   -9.0444 C.2       9 UNK         0.5031 
     58 O          31.3505   -2.3994   -9.1487 O.2       9 UNK        -0.5390 
     59 N          30.5194   -0.3253   -9.5869 N.am      10 UNK        -0.4204 
     60 CA         31.6105    0.2543  -10.3809 C.3       10 UNK         0.0237 
     61 CB         31.7274   -0.4544  -11.7473 C.3       10 UNK        -0.1985 
     62 C          32.9446    0.3127   -9.6107 C.2       10 UNK         0.4970 
     63 O          33.9975   -0.0071  -10.1661 O.2       10 UNK        -0.4914 
     64 N          32.8672    0.7155   -8.3371 N.am      11 UNK        -0.4285 
     65 CA         33.9986    0.8200   -7.4058 C.3       11 UNK         0.1007 
     66 C          34.9963    1.9769   -7.7120 C.2       11 UNK         0.5703 
     67 N          34.6449    2.9547   -8.5397 N.am      11 UNK        -0.7361 
     68 O          36.1133    1.9824   -7.2007 O.2       11 UNK        -0.4986 
     69 C69        33.4846    0.8706   -5.9417 C.3       12 UNK        -0.0947 
     70 S70        34.5819    0.0146   -4.7642 S.3       12 UNK        -0.2240 
     71 C71        33.5895   -1.4666   -4.3584 C.3       12 UNK         0.0194 
     72 H72        25.5569   -9.2922   -0.4470 H         1 UNK         0.0906 
     73 H73        25.8922   -9.3043    1.2850 H         1 UNK         0.0906 
     74 H74        24.3101   -8.7882    0.6957 H         1 UNK         0.0906 
     75 H75        26.5076   -7.5494   -1.4857 H         1 UNK         0.3140 
     76 H76        27.4710   -5.2557   -0.0327 H         1 UNK         0.1085 
     77 H77        28.4204   -6.5054   -2.2342 H         1 UNK         0.0836 
     78 H78        27.4572   -5.3359   -3.0802 H         1 UNK         0.0836 
     79 H79        27.9815   -2.6677   -2.9552 H         1 UNK         0.0731 
     80 H80        28.9641   -3.5548   -4.1010 H         1 UNK         0.0731 
     81 H81        31.4551   -3.1125   -4.2264 H         1 UNK         0.1312 
     82 H82        32.7513    0.7552   -2.8902 H         1 UNK         0.1406 
     83 H83        28.8299   -0.6470   -1.9015 H         1 UNK         0.1631 
     84 H84        31.4164    2.0790   -1.4798 H         1 UNK         0.0717 
     85 H85        30.1877    1.2515   -0.5574 H         1 UNK         0.0717 
     86 H86        29.8287    3.9159   -4.1981 H         1 UNK         0.0934 
     87 H87        31.0001    2.6410   -4.0027 H         1 UNK         0.0934 
     88 H88        29.4762    0.9768   -4.9680 H         1 UNK         0.0739 
     89 H89        27.4234    2.5294   -4.2145 H         1 UNK         0.3093 
     90 H90        25.3533    2.0018   -4.4473 H         1 UNK         0.0818 
     91 H91        24.9823    3.4491   -6.4713 H         1 UNK         0.0819 
     92 H92        24.5766    2.0197   -7.4172 H         1 UNK         0.0819 
     93 H93        23.5527    2.5132   -6.0710 H         1 UNK         0.0819 
     94 H94        24.2343   -0.0232   -6.1570 H         1 UNK         0.3041 
     95 H95        23.6859   -2.0107   -5.2851 H         1 UNK         0.0784 
     96 H96        25.8016   -2.4989   -6.5909 H         1 UNK         0.0793 
     97 H97        26.5422   -3.1504   -5.1362 H         1 UNK         0.0793 
     98 H98        25.1476   -3.9524   -5.8534 H         1 UNK         0.0793 
     99 H99        25.1004   -2.4962   -2.7548 H         1 UNK         0.3024 
    100 H100       23.4274   -3.2795   -1.0646 H         1 UNK         0.1171 
    101 H101       22.1449   -5.2956   -0.3874 H         1 UNK         0.0786 
    102 H102       21.2574   -4.3807   -1.5943 H         1 UNK         0.0786 
    103 H103       22.0925   -5.8573   -2.0580 H         1 UNK         0.0786 
    104 H104       24.4939   -5.9644   -1.5890 H         1 UNK         0.2977 
    105 H105       28.9059    4.2156   -6.4567 H         1 UNK         0.3127 
    106 H106       30.9498    3.6973   -8.5035 H         1 UNK         0.0770 
    107 H107       29.0716    6.0818   -8.0845 H         1 UNK         0.0814 
    108 H108       30.3978    6.0043   -9.2353 H         1 UNK         0.0814 
    109 H109       30.7360    5.9579   -7.5137 H         1 UNK         0.0814 
    110 H110       27.3865    3.8449   -8.3093 H         1 UNK         0.2983 
    111 H111       27.0926    3.9841  -11.1847 H         1 UNK         0.0947 
    112 H112       24.6736    4.1255  -10.6605 H         1 UNK         0.0806 
    113 H113       25.5998    5.2438   -9.6757 H         1 UNK         0.0806 
    114 H114       24.9894    3.7458   -8.9766 H         1 UNK         0.0806 
    115 H115       26.7879    1.3240   -8.8183 H         1 UNK         0.3000 
    116 H116       25.8169   -0.4817  -11.0181 H         1 UNK         0.0850 
    117 H117       25.2014   -0.5947   -8.0276 H         1 UNK         0.0810 
    118 H118       24.0807   -0.0899   -9.2898 H         1 UNK         0.0810 
    119 H119       24.6600   -1.7482   -9.2370 H         1 UNK         0.0810 
    120 H120       27.7523   -0.3556   -7.9692 H         1 UNK         0.3040 
    121 H121       28.9509   -2.9494   -8.4731 H         1 UNK         0.0766 
    122 H122       29.7456   -0.7947   -6.4528 H         1 UNK         0.0812 
    123 H123       30.2244   -2.4808   -6.4293 H         1 UNK         0.0812 
    124 H124       28.5412   -2.0454   -6.1701 H         1 UNK         0.0812 
    125 H125       29.7510    0.2976   -9.3814 H         1 UNK         0.3205 
    126 H126       31.3308    1.2905  -10.5736 H         1 UNK         0.0754 
    127 H127       32.4524    0.0485  -12.3884 H         1 UNK         0.0769 
    128 H128       30.7738   -0.4538  -12.2756 H         1 UNK         0.0769 
    129 H129       32.0507   -1.4904  -11.6402 H         1 UNK         0.0769 
    130 H130       31.9578    0.9743   -7.9557 H         1 UNK         0.2981 
    131 H131       34.5665   -0.1040   -7.5309 H         1 UNK         0.0541 
    132 H132       33.7358    2.9559   -8.9715 H         1 UNK         0.3459 
    133 H133       35.3008    3.6940   -8.7363 H         1 UNK         0.3459 
    134 H134       32.5022    0.4019   -5.8735 H         1 UNK         0.0612 
    135 H135       33.3317    1.8979   -5.6059 H         1 UNK         0.0612 
    136 H136       33.4136   -2.0180   -5.2837 H         1 UNK         0.0624 
    137 H137       34.1889   -2.1157   -3.7193 H         1 UNK         0.0624 
@<TRIPOS>BOND
     1    1    2 1    
     2    1   72 1    
     3    1   73 1    
     4    1   74 1    
     5    2    3 2    
     6    2    4 am   BACKBONE|DICT|INTERRES
     7    4    5 1    
     8    4   75 1    
     9    5    6 1    
    10    5   35 1    
    11    5   76 1    
    12    6    7 1    
    13    6   77 1    
    14    6   78 1    
    15    7    8 1    
    16    8    9 1    
    17    8   79 1    
    18    8   80 1    
    19    9   10 ar   
    20    9   14 ar   
    21   10   11 ar   
    22   10   81 1    
    23   11   12 ar   
    24   11   71 1    
    25   12   13 ar   
    26   12   82 1    
    27   13   14 ar   
    28   13   15 1    
    29   14   83 1    
    30   15   16 1    
    31   15   84 1    
    32   15   85 1    
    33   16   17 1    
    34   17   18 1    
    35   17   86 1    
    36   17   87 1    
    37   18   19 1    
    38   18   37 1    
    39   18   88 1    
    40   19   20 am   BACKBONE|DICT|INTERRES
    41   19   89 1    
    42   20   21 2    
    43   20   22 1    
    44   22   23 1    
    45   22   24 1    
    46   22   90 1    
    47   23   91 1    
    48   23   92 1    
    49   23   93 1    
    50   24   25 am   BACKBONE|DICT|INTERRES
    51   24   94 1    
    52   25   26 2    
    53   25   27 1    
    54   27   28 1    
    55   27   29 1    
    56   27   95 1    
    57   28   96 1    
    58   28   97 1    
    59   28   98 1    
    60   29   30 am   BACKBONE|DICT|INTERRES
    61   29   99 1    
    62   30   31 2    
    63   30   32 1    
    64   32   33 1    
    65   32   34 1    
    66   32  100 1    
    67   33  101 1    
    68   33  102 1    
    69   33  103 1    
    70   34   35 am   BACKBONE|DICT|INTERRES
    71   34  104 1    
    72   35   36 2    
    73   37   38 2    
    74   37   39 am   BACKBONE|DICT|INTERRES
    75   39   40 1    
    76   39  105 1    
    77   40   41 1    
    78   40   42 1    
    79   40  106 1    
    80   41  107 1    
    81   41  108 1    
    82   41  109 1    
    83   42   43 2    
    84   42   44 am   BACKBONE|DICT|INTERRES
    85   44   45 1    
    86   44  110 1    
    87   45   46 1    
    88   45   47 1    
    89   45  111 1    
    90   46  112 1    
    91   46  113 1    
    92   46  114 1    
    93   47   48 2    
    94   47   49 am   BACKBONE|DICT|INTERRES
    95   49   50 1    
    96   49  115 1    
    97   50   51 1    
    98   50   52 1    
    99   50  116 1    
   100   51  117 1    
   101   51  118 1    
   102   51  119 1    
   103   52   53 2    
   104   52   54 am   BACKBONE|DICT|INTERRES
   105   54   55 1    
   106   54  120 1    
   107   55   56 1    
   108   55   57 1    
   109   55  121 1    
   110   56  122 1    
   111   56  123 1    
   112   56  124 1    
   113   57   58 2    
   114   57   59 am   BACKBONE|DICT|INTERRES
   115   59   60 1    
   116   59  125 1    
   117   60   61 1    
   118   60   62 1    
   119   60  126 1    
   120   61  127 1    
   121   61  128 1    
   122   61  129 1    
   123   62   63 2    
   124   62   64 am   BACKBONE|DICT|INTERRES
   125   64   65 1    
   126   64  130 1    
   127   65   66 1    
   128   65   69 1    
   129   65  131 1    
   130   66   67 am   BACKBONE|DICT|INTERRES
   131   66   68 2    
   132   67  132 1    
   133   67  133 1    
   134   69   70 1    
   135   69  134 1    
   136   69  135 1    
   137   70   71 1    
   138   71  136 1    
   139   71  137 1    
@<TRIPOS>SUBSTRUCTURE
     1 UNK         1 GROUP             0       ****    0 ROOT    
