@<TRIPOS>MOLECULE
3R137
137   139    1
SMALL
USER_CHARGES


@<TRIPOS>ATOM
      1 CA         26.4986   -7.0550   -4.6712 C.3       0 UNK        -0.2020 
      2 C          26.2322   -6.2994   -3.3777 C.2       0 UNK         0.4855 
      3 O          25.2058   -6.5245   -2.7351 O.2       0 UNK        -0.5197 
      4 N          27.1555   -5.4125   -2.9899 N.am      1 UNK        -0.4892 
      5 CA         27.0500   -4.5387   -1.8156 C.3       1 UNK         0.0835 
      6 C6         28.4256   -3.9417   -1.4162 C.3       12 UNK        -0.0855 
      7 S7         29.7295   -5.2103   -1.2032 S.3       12 UNK        -0.2931 
      8 C8         31.2688   -4.2203   -1.2000 C.3       12 UNK         0.0378 
      9 C9         31.3244   -3.2160   -2.3441 C.ar      12 UNK        -0.0802 
     10 C10        31.4769   -1.8522   -2.0759 C.ar      12 UNK        -0.0944 
     11 C11        31.4134   -0.9055   -3.1033 C.ar      12 UNK        -0.0787 
     12 C12        31.1643   -1.3449   -4.4101 C.ar      12 UNK        -0.0862 
     13 C13        31.0474   -2.7088   -4.6970 C.ar      12 UNK        -0.0733 
     14 C14        31.1556   -3.6411   -3.6640 C.ar      12 UNK        -0.0832 
     15 C15        30.7743   -3.1715   -6.1205 C.3       12 UNK         0.0240 
     16 S16        29.2213   -4.1161   -6.2914 S.3       12 UNK        -0.2522 
     17 C17        27.9802   -3.0500   -5.4826 C.3       12 UNK        -0.0967 
     18 CA         27.2802   -2.0575   -6.4379 C.3       5 UNK         0.0660 
     19 N          25.9227   -1.7413   -5.9800 N.am      5 UNK        -0.4015 
     20 C          25.0171   -1.0902   -6.7246 C.2       4 UNK         0.4946 
     21 O          25.2249   -0.7023   -7.8745 O.2       4 UNK        -0.5353 
     22 CA         23.6643   -0.7878   -6.0643 C.3       4 UNK         0.0277 
     23 CB         22.8182   -2.0655   -5.9384 C.3       4 UNK        -0.1981 
     24 N          23.7909   -0.1505   -4.7520 N.am      4 UNK        -0.4209 
     25 C          24.3797    1.0320   -4.5138 C.2       3 UNK         0.4942 
     26 O          24.9194    1.7133   -5.3829 O.2       3 UNK        -0.5208 
     27 CA         24.3682    1.5498   -3.0640 C.3       3 UNK         0.0250 
     28 CB         23.2505    2.5879   -2.8754 C.3       3 UNK        -0.1990 
     29 N          24.2042    0.4753   -2.0822 N.am      3 UNK        -0.4232 
     30 C          25.1657   -0.4009   -1.7630 C.2       2 UNK         0.4993 
     31 O          26.3288   -0.3000   -2.1626 O.2       2 UNK        -0.5286 
     32 CA         24.7504   -1.5791   -0.8530 C.3       2 UNK         0.0209 
     33 CB         23.2991   -2.0543   -1.0999 C.3       2 UNK        -0.1931 
     34 N          25.6667   -2.7253   -0.9344 N.am      2 UNK        -0.4546 
     35 C          26.0143   -3.4098   -2.0357 C.2       1 UNK         0.5154 
     36 O          25.5841   -3.1590   -3.1690 O.2       1 UNK        -0.5181 
     37 C          28.1190   -0.7826   -6.6567 C.2       5 UNK         0.5014 
     38 O          28.8575   -0.7001   -7.6403 O.2       5 UNK        -0.5248 
     39 N          27.9596    0.2042   -5.7616 N.am      6 UNK        -0.4434 
     40 CA         28.6026    1.5144   -5.8548 C.3       6 UNK         0.0363 
     41 CB         28.3380    2.3233   -4.5753 C.3       6 UNK        -0.1936 
     42 C          28.1702    2.2908   -7.1068 C.2       6 UNK         0.5081 
     43 O          29.0310    2.7730   -7.8399 O.2       6 UNK        -0.5248 
     44 N          26.8569    2.3526   -7.3633 N.am      7 UNK        -0.4718 
     45 CA         26.2776    2.9671   -8.5601 C.3       7 UNK         0.0273 
     46 CB         24.7467    3.0024   -8.4277 C.3       7 UNK        -0.1935 
     47 C          26.6916    2.2640   -9.8645 C.2       7 UNK         0.5018 
     48 O          26.9021    2.9423  -10.8708 O.2       7 UNK        -0.5186 
     49 N          26.8006    0.9290   -9.8242 N.am      8 UNK        -0.4240 
     50 CA         27.2068    0.1008  -10.9570 C.3       8 UNK         0.0235 
     51 CB         26.8325   -1.3669  -10.6892 C.3       8 UNK        -0.2000 
     52 C          28.7002    0.2289  -11.2990 C.2       8 UNK         0.4941 
     53 O          29.0247    0.5001  -12.4563 O.2       8 UNK        -0.5273 
     54 N          29.5772   -0.0164  -10.3149 N.am      9 UNK        -0.4262 
     55 CA         31.0080   -0.2434  -10.5491 C.3       9 UNK         0.0264 
     56 CB         31.4148   -1.5446   -9.8378 C.3       9 UNK        -0.1955 
     57 C          31.9245    0.9029  -10.0940 C.2       9 UNK         0.5031 
     58 O          33.1031    0.8716  -10.4496 O.2       9 UNK        -0.5390 
     59 N          31.4146    1.8612   -9.3033 N.am      10 UNK        -0.4204 
     60 CA         32.1668    2.9523   -8.6571 C.3       10 UNK         0.0237 
     61 CB         32.8045    3.8991   -9.6981 C.3       10 UNK        -0.1985 
     62 C          33.1701    2.4729   -7.5836 C.2       10 UNK         0.4970 
     63 O          34.1014    3.2096   -7.2533 O.2       10 UNK        -0.4914 
     64 N          32.9395    1.2701   -7.0375 N.am      11 UNK        -0.4285 
     65 CA         33.7285    0.6142   -5.9794 C.3       11 UNK         0.1007 
     66 C          35.1959    0.2978   -6.4058 C.2       11 UNK         0.5703 
     67 N          36.1149    0.1117   -5.4664 N.am      11 UNK        -0.7361 
     68 O          35.5043    0.1571   -7.5876 O.2       11 UNK        -0.4986 
     69 C69        33.6096    1.3282   -4.5957 C.3       12 UNK        -0.0947 
     70 S70        31.8930    1.7255   -4.1135 S.3       12 UNK        -0.2240 
     71 C71        31.5672    0.5724   -2.7340 C.3       12 UNK         0.0194 
     72 H72        27.4385   -6.7534   -5.1339 H         1 UNK         0.0906 
     73 H73        26.5435   -8.1266   -4.4785 H         1 UNK         0.0906 
     74 H74        25.6964   -6.8694   -5.3849 H         1 UNK         0.0906 
     75 H75        27.9873   -5.2832   -3.5470 H         1 UNK         0.3140 
     76 H76        26.6905   -5.1500   -0.9847 H         1 UNK         0.1085 
     77 H77        28.3523   -3.3845   -0.4806 H         1 UNK         0.0836 
     78 H78        28.7341   -3.2184   -2.1717 H         1 UNK         0.0836 
     79 H79        31.3517   -3.7138   -0.2371 H         1 UNK         0.0731 
     80 H80        32.1254   -4.8919   -1.2704 H         1 UNK         0.0731 
     81 H81        31.6180   -1.5204   -1.0560 H         1 UNK         0.1312 
     82 H82        31.0530   -0.6299   -5.2114 H         1 UNK         0.1406 
     83 H83        31.0405   -4.6951   -3.8786 H         1 UNK         0.1631 
     84 H84        31.6040   -3.7936   -6.4584 H         1 UNK         0.0717 
     85 H85        30.7393   -2.3199   -6.7958 H         1 UNK         0.0717 
     86 H86        27.2329   -3.7450   -5.1033 H         1 UNK         0.0934 
     87 H87        28.3852   -2.5541   -4.5990 H         1 UNK         0.0934 
     88 H88        27.1715   -2.5422   -7.4107 H         1 UNK         0.0739 
     89 H89        25.6750   -2.0393   -5.0420 H         1 UNK         0.3093 
     90 H90        23.1329   -0.0906   -6.7158 H         1 UNK         0.0818 
     91 H91        21.8135   -1.8419   -5.5793 H         1 UNK         0.0819 
     92 H92        22.7111   -2.5592   -6.9055 H         1 UNK         0.0819 
     93 H93        23.2669   -2.7856   -5.2523 H         1 UNK         0.0819 
     94 H94        23.3841   -0.6423   -3.9711 H         1 UNK         0.3041 
     95 H95        25.3255    2.0437   -2.8833 H         1 UNK         0.0784 
     96 H96        23.3646    3.4142   -3.5788 H         1 UNK         0.0793 
     97 H97        22.2626    2.1555   -3.0390 H         1 UNK         0.0793 
     98 H98        23.2700    3.0144   -1.8723 H         1 UNK         0.0793 
     99 H99        23.2822    0.3539   -1.6879 H         1 UNK         0.3024 
    100 H100       24.8145   -1.2058    0.1706 H         1 UNK         0.1171 
    101 H101       22.5703   -1.2837   -0.8470 H         1 UNK         0.0786 
    102 H102       23.0607   -2.9204   -0.4822 H         1 UNK         0.0786 
    103 H103       23.1359   -2.3399   -2.1399 H         1 UNK         0.0786 
    104 H104       26.1043   -2.9824   -0.0607 H         1 UNK         0.2977 
    105 H105       27.3174    0.0660   -4.9944 H         1 UNK         0.3127 
    106 H106       29.6767    1.3433   -5.9363 H         1 UNK         0.0770 
    107 H107       27.2817    2.5600   -4.4511 H         1 UNK         0.0814 
    108 H108       28.8826    3.2681   -4.5973 H         1 UNK         0.0814 
    109 H109       28.6664    1.7817   -3.6881 H         1 UNK         0.0814 
    110 H110       26.2014    1.9625   -6.6878 H         1 UNK         0.2983 
    111 H111       26.6413    3.9956   -8.6131 H         1 UNK         0.0947 
    112 H112       24.2878    3.4672   -9.3013 H         1 UNK         0.0806 
    113 H113       24.4383    3.5770   -7.5540 H         1 UNK         0.0806 
    114 H114       24.3286    1.9994   -8.3309 H         1 UNK         0.0806 
    115 H115       26.5405    0.4461   -8.9699 H         1 UNK         0.3000 
    116 H116       26.6407    0.4306  -11.8311 H         1 UNK         0.0850 
    117 H117       27.1201   -2.0035  -11.5269 H         1 UNK         0.0810 
    118 H118       25.7573   -1.4810  -10.5498 H         1 UNK         0.0810 
    119 H119       27.3258   -1.7564   -9.7982 H         1 UNK         0.0810 
    120 H120       29.2295   -0.2270   -9.3793 H         1 UNK         0.3040 
    121 H121       31.1955   -0.3868  -11.6154 H         1 UNK         0.0766 
    122 H122       32.4482   -1.8102  -10.0649 H         1 UNK         0.0812 
    123 H123       30.7892   -2.3825  -10.1460 H         1 UNK         0.0812 
    124 H124       31.3362   -1.4448   -8.7571 H         1 UNK         0.0812 
    125 H125       30.4282    1.8305   -9.0628 H         1 UNK         0.3205 
    126 H126       31.4322    3.5432   -8.1107 H         1 UNK         0.0754 
    127 H127       33.1954    4.7980   -9.2199 H         1 UNK         0.0769 
    128 H128       32.0744    4.2213  -10.4404 H         1 UNK         0.0769 
    129 H129       33.6351    3.4281  -10.2241 H         1 UNK         0.0769 
    130 H130       32.1651    0.7364   -7.3984 H         1 UNK         0.2981 
    131 H131       33.2809   -0.3723   -5.8734 H         1 UNK         0.0541 
    132 H132       37.0571   -0.1148   -5.7440 H         1 UNK         0.3459 
    133 H133       35.8878    0.1984   -4.4888 H         1 UNK         0.3459 
    134 H134       34.1726    2.2629   -4.6058 H         1 UNK         0.0612 
    135 H135       34.0519    0.7149   -3.8096 H         1 UNK         0.0612 
    136 H136       30.6477    0.8925   -2.2425 H         1 UNK         0.0624 
    137 H137       32.3637    0.6861   -1.9970 H         1 UNK         0.0624 
@<TRIPOS>BOND
     1    1    2 1    
     2    1   72 1    
     3    1   73 1    
     4    1   74 1    
     5    2    3 2    
     6    2    4 am   BACKBONE|DICT|INTERRES
     7    4    5 1    
     8    4   75 1    
     9    5    6 1    
    10    5   35 1    
    11    5   76 1    
    12    6    7 1    
    13    6   77 1    
    14    6   78 1    
    15    7    8 1    
    16    8    9 1    
    17    8   79 1    
    18    8   80 1    
    19    9   10 ar   
    20    9   14 ar   
    21   10   11 ar   
    22   10   81 1    
    23   11   12 ar   
    24   11   71 1    
    25   12   13 ar   
    26   12   82 1    
    27   13   14 ar   
    28   13   15 1    
    29   14   83 1    
    30   15   16 1    
    31   15   84 1    
    32   15   85 1    
    33   16   17 1    
    34   17   18 1    
    35   17   86 1    
    36   17   87 1    
    37   18   19 1    
    38   18   37 1    
    39   18   88 1    
    40   19   20 am   BACKBONE|DICT|INTERRES
    41   19   89 1    
    42   20   21 2    
    43   20   22 1    
    44   22   23 1    
    45   22   24 1    
    46   22   90 1    
    47   23   91 1    
    48   23   92 1    
    49   23   93 1    
    50   24   25 am   BACKBONE|DICT|INTERRES
    51   24   94 1    
    52   25   26 2    
    53   25   27 1    
    54   27   28 1    
    55   27   29 1    
    56   27   95 1    
    57   28   96 1    
    58   28   97 1    
    59   28   98 1    
    60   29   30 am   BACKBONE|DICT|INTERRES
    61   29   99 1    
    62   30   31 2    
    63   30   32 1    
    64   32   33 1    
    65   32   34 1    
    66   32  100 1    
    67   33  101 1    
    68   33  102 1    
    69   33  103 1    
    70   34   35 am   BACKBONE|DICT|INTERRES
    71   34  104 1    
    72   35   36 2    
    73   37   38 2    
    74   37   39 am   BACKBONE|DICT|INTERRES
    75   39   40 1    
    76   39  105 1    
    77   40   41 1    
    78   40   42 1    
    79   40  106 1    
    80   41  107 1    
    81   41  108 1    
    82   41  109 1    
    83   42   43 2    
    84   42   44 am   BACKBONE|DICT|INTERRES
    85   44   45 1    
    86   44  110 1    
    87   45   46 1    
    88   45   47 1    
    89   45  111 1    
    90   46  112 1    
    91   46  113 1    
    92   46  114 1    
    93   47   48 2    
    94   47   49 am   BACKBONE|DICT|INTERRES
    95   49   50 1    
    96   49  115 1    
    97   50   51 1    
    98   50   52 1    
    99   50  116 1    
   100   51  117 1    
   101   51  118 1    
   102   51  119 1    
   103   52   53 2    
   104   52   54 am   BACKBONE|DICT|INTERRES
   105   54   55 1    
   106   54  120 1    
   107   55   56 1    
   108   55   57 1    
   109   55  121 1    
   110   56  122 1    
   111   56  123 1    
   112   56  124 1    
   113   57   58 2    
   114   57   59 am   BACKBONE|DICT|INTERRES
   115   59   60 1    
   116   59  125 1    
   117   60   61 1    
   118   60   62 1    
   119   60  126 1    
   120   61  127 1    
   121   61  128 1    
   122   61  129 1    
   123   62   63 2    
   124   62   64 am   BACKBONE|DICT|INTERRES
   125   64   65 1    
   126   64  130 1    
   127   65   66 1    
   128   65   69 1    
   129   65  131 1    
   130   66   67 am   BACKBONE|DICT|INTERRES
   131   66   68 2    
   132   67  132 1    
   133   67  133 1    
   134   69   70 1    
   135   69  134 1    
   136   69  135 1    
   137   70   71 1    
   138   71  136 1    
   139   71  137 1    
@<TRIPOS>SUBSTRUCTURE
     1 UNK         1 GROUP             0       ****    0 ROOT    
