@<TRIPOS>MOLECULE
3R137
137   139    1
SMALL
USER_CHARGES


@<TRIPOS>ATOM
      1 CA         27.8396    0.1511    3.8559 C.3       0 UNK        -0.2020 
      2 C          27.5847   -0.4404    2.4780 C.2       0 UNK         0.4855 
      3 O          26.8088   -1.3889    2.3556 O.2       0 UNK        -0.5197 
      4 N          28.2215    0.1202    1.4396 N.am      1 UNK        -0.4892 
      5 CA         28.1506   -0.2632    0.0198 C.3       1 UNK         0.0835 
      6 C6         28.5373   -1.7461   -0.2347 C.3       12 UNK        -0.0855 
      7 S7         29.1407   -2.0384   -1.9286 S.3       12 UNK        -0.2931 
      8 C8         29.4825   -3.8229   -1.8429 C.3       12 UNK         0.0378 
      9 C9         30.1481   -4.3081   -3.1205 C.ar      12 UNK        -0.0802 
     10 C10        31.5069   -4.0557   -3.3333 C.ar      12 UNK        -0.0944 
     11 C11        32.1265   -4.4638   -4.5171 C.ar      12 UNK        -0.0787 
     12 C12        31.3821   -5.1399   -5.4854 C.ar      12 UNK        -0.0862 
     13 C13        30.0218   -5.3885   -5.2899 C.ar      12 UNK        -0.0733 
     14 C14        29.4101   -4.9849   -4.0978 C.ar      12 UNK        -0.0832 
     15 C15        29.2127   -6.0436   -6.3997 C.3       12 UNK         0.0240 
     16 S16        28.0340   -4.8993   -7.1978 S.3       12 UNK        -0.2522 
     17 C17        28.8850   -3.2755   -7.1496 C.3       12 UNK        -0.0967 
     18 CA         28.1048   -2.1449   -7.8698 C.3       5 UNK         0.0660 
     19 N          26.6719   -2.1973   -7.5663 N.am      5 UNK        -0.4015 
     20 C          25.7151   -1.4274   -8.0974 C.2       4 UNK         0.4946 
     21 O          25.9226   -0.5777   -8.9595 O.2       4 UNK        -0.5353 
     22 CA         24.2914   -1.5981   -7.5381 C.3       4 UNK         0.0277 
     23 CB         23.4674   -2.5199   -8.4505 C.3       4 UNK        -0.1981 
     24 N          24.2434   -2.1018   -6.1594 N.am      4 UNK        -0.4209 
     25 C          24.8034   -1.5014   -5.0999 C.2       3 UNK         0.4942 
     26 O          25.4599   -0.4578   -5.1663 O.2       3 UNK        -0.5208 
     27 CA         24.6644   -2.2321   -3.7628 C.3       3 UNK         0.0250 
     28 CB         25.7808   -3.2809   -3.6065 C.3       3 UNK        -0.1990 
     29 N          24.7604   -1.2614   -2.6782 N.am      3 UNK        -0.4232 
     30 C          24.0298   -1.2674   -1.5586 C.2       2 UNK         0.4993 
     31 O          23.1815   -2.1241   -1.3004 O.2       2 UNK        -0.5286 
     32 CA         24.3299   -0.1478   -0.5436 C.3       2 UNK         0.0209 
     33 CB         23.3429   -0.1320    0.6390 C.3       2 UNK        -0.1931 
     34 N          25.6886   -0.2863   -0.0193 N.am      2 UNK        -0.4546 
     35 C          26.8056    0.1030   -0.6435 C.2       1 UNK         0.5154 
     36 O          26.7965    0.7276   -1.7048 O.2       1 UNK        -0.5181 
     37 C          28.7274   -0.7722   -7.5273 C.2       5 UNK         0.5014 
     38 O          29.6411   -0.3236   -8.2245 O.2       5 UNK        -0.5248 
     39 N          28.2228   -0.1241   -6.4661 N.am      6 UNK        -0.4434 
     40 CA         28.6241    1.2236   -6.0698 C.3       6 UNK         0.0363 
     41 CB         28.3125    1.4472   -4.5831 C.3       6 UNK        -0.1936 
     42 C          27.9443    2.2866   -6.9439 C.2       6 UNK         0.5081 
     43 O          28.6067    3.2377   -7.3554 O.2       6 UNK        -0.5248 
     44 N          26.6531    2.0903   -7.2527 N.am      7 UNK        -0.4718 
     45 CA         25.8620    2.9670   -8.1264 C.3       7 UNK         0.0273 
     46 CB         24.3830    2.5525   -8.0751 C.3       7 UNK        -0.1935 
     47 C          26.3731    2.9883   -9.5785 C.2       7 UNK         0.5018 
     48 O          26.4054    4.0523  -10.1969 O.2       7 UNK        -0.5186 
     49 N          26.8064    1.8219  -10.0752 N.am      8 UNK        -0.4240 
     50 CA         27.4715    1.6357  -11.3675 C.3       8 UNK         0.0235 
     51 CB         27.4200    0.1431  -11.7372 C.3       8 UNK        -0.2000 
     52 C          28.9279    2.1401  -11.3960 C.2       8 UNK         0.4941 
     53 O          29.5284    2.1482  -12.4712 O.2       8 UNK        -0.5273 
     54 N          29.4735    2.5299  -10.2329 N.am      9 UNK        -0.4262 
     55 CA         30.8363    3.0187  -10.0035 C.3       9 UNK         0.0264 
     56 CB         31.0810    4.3525  -10.7419 C.3       9 UNK        -0.1955 
     57 C          31.9271    1.9656  -10.2808 C.2       9 UNK         0.5031 
     58 O          33.0470    2.3326  -10.6417 O.2       9 UNK        -0.5390 
     59 N          31.6047    0.6804  -10.0720 N.am      10 UNK        -0.4204 
     60 CA         32.5704   -0.4202  -10.1106 C.3       10 UNK         0.0237 
     61 CB         31.8452   -1.7503  -10.3783 C.3       10 UNK        -0.1985 
     62 C          33.3734   -0.4810   -8.8021 C.2       10 UNK         0.4970 
     63 O          34.5921   -0.6515   -8.8490 O.2       10 UNK        -0.4914 
     64 N          32.6738   -0.3022   -7.6742 N.am      11 UNK        -0.4285 
     65 CA         33.2355   -0.2228   -6.3150 C.3       11 UNK         0.1007 
     66 C          32.8180    1.0833   -5.5776 C.2       11 UNK         0.5703 
     67 N          32.3378    2.1082   -6.2726 N.am      11 UNK        -0.7361 
     68 O          32.9516    1.1869   -4.3608 O.2       11 UNK        -0.4986 
     69 C69        32.9275   -1.5026   -5.4913 C.3       12 UNK        -0.0947 
     70 S70        33.7809   -2.9717   -6.1545 S.3       12 UNK        -0.2240 
     71 C71        33.5903   -4.1433   -4.7745 C.3       12 UNK         0.0194 
     72 H72        28.5443    0.9818    3.8211 H         1 UNK         0.0906 
     73 H73        28.2465   -0.6104    4.5207 H         1 UNK         0.0906 
     74 H74        26.9069    0.5153    4.2858 H         1 UNK         0.0906 
     75 H75        28.8167    0.9175    1.6220 H         1 UNK         0.3140 
     76 H76        28.9038    0.3593   -0.4671 H         1 UNK         0.1085 
     77 H77        27.7033   -2.4188   -0.0245 H         1 UNK         0.0836 
     78 H78        29.3376   -2.0387    0.4470 H         1 UNK         0.0836 
     79 H79        30.1320   -4.0315   -0.9912 H         1 UNK         0.0731 
     80 H80        28.5507   -4.3620   -1.6641 H         1 UNK         0.0731 
     81 H81        32.0736   -3.5180   -2.5852 H         1 UNK         0.1312 
     82 H82        31.8589   -5.4367   -6.4098 H         1 UNK         0.1406 
     83 H83        28.3540   -5.1664   -3.9505 H         1 UNK         0.1631 
     84 H84        28.6627   -6.8943   -5.9952 H         1 UNK         0.0717 
     85 H85        29.8736   -6.4479   -7.1681 H         1 UNK         0.0717 
     86 H86        29.0364   -3.0115   -6.1008 H         1 UNK         0.0934 
     87 H87        29.8813   -3.3835   -7.5835 H         1 UNK         0.0934 
     88 H88        28.2074   -2.2891   -8.9473 H         1 UNK         0.0739 
     89 H89        26.3992   -2.8979   -6.8932 H         1 UNK         0.3093 
     90 H90        23.8245   -0.6116   -7.5381 H         1 UNK         0.0818 
     91 H91        23.4671   -2.1521   -9.4778 H         1 UNK         0.0819 
     92 H92        23.8671   -3.5346   -8.4683 H         1 UNK         0.0819 
     93 H93        22.4271   -2.5725   -8.1286 H         1 UNK         0.0819 
     94 H94        23.7352   -2.9631   -6.0144 H         1 UNK         0.3041 
     95 H95        23.6907   -2.7263   -3.7378 H         1 UNK         0.0784 
     96 H96        25.7167   -3.7870   -2.6431 H         1 UNK         0.0793 
     97 H97        25.7156   -4.0473   -4.3797 H         1 UNK         0.0793 
     98 H98        26.7705   -2.8277   -3.6781 H         1 UNK         0.0793 
     99 H99        25.4271   -0.5094   -2.8277 H         1 UNK         0.3024 
    100 H100       24.2398    0.8058   -1.0694 H         1 UNK         0.1171 
    101 H101       23.3939   -1.0533    1.2209 H         1 UNK         0.0786 
    102 H102       22.3156   -0.0212    0.2894 H         1 UNK         0.0786 
    103 H103       23.5466    0.7003    1.3129 H         1 UNK         0.0786 
    104 H104       25.8042   -0.8043    0.8484 H         1 UNK         0.2977 
    105 H105       27.4397   -0.5260   -5.9629 H         1 UNK         0.3127 
    106 H106       29.7026    1.3198   -6.2017 H         1 UNK         0.0770 
    107 H107       28.6612    2.4272   -4.2556 H         1 UNK         0.0814 
    108 H108       27.2424    1.3989   -4.3791 H         1 UNK         0.0814 
    109 H109       28.8043    0.7024   -3.9566 H         1 UNK         0.0814 
    110 H110       26.1868    1.2768   -6.8741 H         1 UNK         0.2983 
    111 H111       25.9449    3.9832   -7.7345 H         1 UNK         0.0947 
    112 H112       24.2264    1.5596   -8.4966 H         1 UNK         0.0806 
    113 H113       23.7666    3.2468   -8.6476 H         1 UNK         0.0806 
    114 H114       24.0038    2.5496   -7.0530 H         1 UNK         0.0806 
    115 H115       26.6449    0.9771   -9.5271 H         1 UNK         0.3000 
    116 H116       26.9180    2.1984  -12.1221 H         1 UNK         0.0850 
    117 H117       26.3929   -0.2205  -11.7761 H         1 UNK         0.0810 
    118 H118       27.9632   -0.4677  -11.0147 H         1 UNK         0.0810 
    119 H119       27.8638   -0.0365  -12.7173 H         1 UNK         0.0810 
    120 H120       28.8893    2.5024   -9.4057 H         1 UNK         0.3040 
    121 H121       30.8956    3.2290   -8.9350 H         1 UNK         0.0766 
    122 H122       31.1137    4.2180  -11.8234 H         1 UNK         0.0812 
    123 H123       32.0307    4.7975  -10.4424 H         1 UNK         0.0812 
    124 H124       30.3001    5.0788  -10.5166 H         1 UNK         0.0812 
    125 H125       30.6818    0.4581   -9.7091 H         1 UNK         0.3205 
    126 H126       33.2701   -0.2485  -10.9316 H         1 UNK         0.0754 
    127 H127       32.5608   -2.5685  -10.4700 H         1 UNK         0.0769 
    128 H128       31.2765   -1.7109  -11.3075 H         1 UNK         0.0769 
    129 H129       31.1565   -2.0133   -9.5754 H         1 UNK         0.0769 
    130 H130       31.6681   -0.1930   -7.7417 H         1 UNK         0.2981 
    131 H131       34.3211   -0.1374   -6.3846 H         1 UNK         0.0541 
    132 H132       32.0856    2.9540   -5.7865 H         1 UNK         0.3459 
    133 H133       32.2860    2.0649   -7.2753 H         1 UNK         0.3459 
    134 H134       31.8529   -1.6936   -5.4664 H         1 UNK         0.0612 
    135 H135       33.2451   -1.3847   -4.4539 H         1 UNK         0.0612 
    136 H136       34.1239   -5.0639   -5.0143 H         1 UNK         0.0624 
    137 H137       34.0664   -3.7315   -3.8833 H         1 UNK         0.0624 
@<TRIPOS>BOND
     1    1    2 1    
     2    1   72 1    
     3    1   73 1    
     4    1   74 1    
     5    2    3 2    
     6    2    4 am   BACKBONE|DICT|INTERRES
     7    4    5 1    
     8    4   75 1    
     9    5    6 1    
    10    5   35 1    
    11    5   76 1    
    12    6    7 1    
    13    6   77 1    
    14    6   78 1    
    15    7    8 1    
    16    8    9 1    
    17    8   79 1    
    18    8   80 1    
    19    9   10 ar   
    20    9   14 ar   
    21   10   11 ar   
    22   10   81 1    
    23   11   12 ar   
    24   11   71 1    
    25   12   13 ar   
    26   12   82 1    
    27   13   14 ar   
    28   13   15 1    
    29   14   83 1    
    30   15   16 1    
    31   15   84 1    
    32   15   85 1    
    33   16   17 1    
    34   17   18 1    
    35   17   86 1    
    36   17   87 1    
    37   18   19 1    
    38   18   37 1    
    39   18   88 1    
    40   19   20 am   BACKBONE|DICT|INTERRES
    41   19   89 1    
    42   20   21 2    
    43   20   22 1    
    44   22   23 1    
    45   22   24 1    
    46   22   90 1    
    47   23   91 1    
    48   23   92 1    
    49   23   93 1    
    50   24   25 am   BACKBONE|DICT|INTERRES
    51   24   94 1    
    52   25   26 2    
    53   25   27 1    
    54   27   28 1    
    55   27   29 1    
    56   27   95 1    
    57   28   96 1    
    58   28   97 1    
    59   28   98 1    
    60   29   30 am   BACKBONE|DICT|INTERRES
    61   29   99 1    
    62   30   31 2    
    63   30   32 1    
    64   32   33 1    
    65   32   34 1    
    66   32  100 1    
    67   33  101 1    
    68   33  102 1    
    69   33  103 1    
    70   34   35 am   BACKBONE|DICT|INTERRES
    71   34  104 1    
    72   35   36 2    
    73   37   38 2    
    74   37   39 am   BACKBONE|DICT|INTERRES
    75   39   40 1    
    76   39  105 1    
    77   40   41 1    
    78   40   42 1    
    79   40  106 1    
    80   41  107 1    
    81   41  108 1    
    82   41  109 1    
    83   42   43 2    
    84   42   44 am   BACKBONE|DICT|INTERRES
    85   44   45 1    
    86   44  110 1    
    87   45   46 1    
    88   45   47 1    
    89   45  111 1    
    90   46  112 1    
    91   46  113 1    
    92   46  114 1    
    93   47   48 2    
    94   47   49 am   BACKBONE|DICT|INTERRES
    95   49   50 1    
    96   49  115 1    
    97   50   51 1    
    98   50   52 1    
    99   50  116 1    
   100   51  117 1    
   101   51  118 1    
   102   51  119 1    
   103   52   53 2    
   104   52   54 am   BACKBONE|DICT|INTERRES
   105   54   55 1    
   106   54  120 1    
   107   55   56 1    
   108   55   57 1    
   109   55  121 1    
   110   56  122 1    
   111   56  123 1    
   112   56  124 1    
   113   57   58 2    
   114   57   59 am   BACKBONE|DICT|INTERRES
   115   59   60 1    
   116   59  125 1    
   117   60   61 1    
   118   60   62 1    
   119   60  126 1    
   120   61  127 1    
   121   61  128 1    
   122   61  129 1    
   123   62   63 2    
   124   62   64 am   BACKBONE|DICT|INTERRES
   125   64   65 1    
   126   64  130 1    
   127   65   66 1    
   128   65   69 1    
   129   65  131 1    
   130   66   67 am   BACKBONE|DICT|INTERRES
   131   66   68 2    
   132   67  132 1    
   133   67  133 1    
   134   69   70 1    
   135   69  134 1    
   136   69  135 1    
   137   70   71 1    
   138   71  136 1    
   139   71  137 1    
@<TRIPOS>SUBSTRUCTURE
     1 UNK         1 GROUP             0       ****    0 ROOT    
