@<TRIPOS>MOLECULE
3R137
137   139    1
SMALL
USER_CHARGES


@<TRIPOS>ATOM
      1 CA         32.2945   -6.7705   -1.6110 C.3       0 UNK        -0.2020 
      2 C          30.7820   -6.8982   -1.5102 C.2       0 UNK         0.4855 
      3 O          30.2126   -7.8604   -2.0255 O.2       0 UNK        -0.5197 
      4 N          30.1273   -5.9363   -0.8473 N.am      1 UNK        -0.4892 
      5 CA         28.6699   -5.8667   -0.6774 C.3       1 UNK         0.0835 
      6 C6         28.2659   -4.8701    0.4431 C.3       12 UNK        -0.0855 
      7 S7         29.0404   -3.2188    0.2898 S.3       12 UNK        -0.2931 
      8 C8         27.6812   -2.2562   -0.4558 C.3       12 UNK         0.0378 
      9 C9         28.1340   -0.9920   -1.1849 C.ar      12 UNK        -0.0802 
     10 C10        29.3539   -0.9269   -1.8713 C.ar      12 UNK        -0.0944 
     11 C11        29.7323    0.2340   -2.5531 C.ar      12 UNK        -0.0787 
     12 C12        28.8779    1.3404   -2.5540 C.ar      12 UNK        -0.0862 
     13 C13        27.6323    1.2705   -1.9211 C.ar      12 UNK        -0.0733 
     14 C14        27.2762    0.1107   -1.2264 C.ar      12 UNK        -0.0832 
     15 C15        26.6461    2.4260   -2.0098 C.3       12 UNK         0.0240 
     16 S16        25.3148    2.0692   -3.2070 S.3       12 UNK        -0.2522 
     17 C17        26.1245    2.4221   -4.8041 C.3       12 UNK        -0.0967 
     18 CA         26.8075    1.1744   -5.4357 C.3       5 UNK         0.0660 
     19 N          25.9035    0.0590   -5.7193 N.am      5 UNK        -0.4015 
     20 C          24.8039    0.0433   -6.4873 C.2       4 UNK         0.4946 
     21 O          24.3743    1.0176   -7.1074 O.2       4 UNK        -0.5353 
     22 CA         24.0327   -1.2928   -6.5748 C.3       4 UNK         0.0277 
     23 CB         24.3287   -2.0028   -7.9060 C.3       4 UNK        -0.1981 
     24 N          24.3346   -2.2084   -5.4693 N.am      4 UNK        -0.4209 
     25 C          23.9734   -2.0087   -4.1940 C.2       3 UNK         0.4942 
     26 O          23.1880   -1.1271   -3.8444 O.2       3 UNK        -0.5208 
     27 CA         24.5963   -2.9179   -3.1140 C.3       3 UNK         0.0250 
     28 CB         23.5293   -3.8431   -2.5055 C.3       3 UNK        -0.1990 
     29 N          25.7498   -3.7361   -3.5172 N.am      3 UNK        -0.4232 
     30 C          26.9090   -3.3081   -4.0360 C.2       2 UNK         0.4993 
     31 O          27.1141   -2.1421   -4.3732 O.2       2 UNK        -0.5286 
     32 CA         28.0201   -4.3668   -4.1876 C.3       2 UNK         0.0209 
     33 CB         29.1908   -3.8620   -5.0489 C.3       2 UNK        -0.1931 
     34 N          28.5514   -4.7969   -2.8917 N.am      2 UNK        -0.4546 
     35 C          27.9239   -5.5749   -1.9979 C.2       1 UNK         0.5154 
     36 O          26.8030   -6.0534   -2.1827 O.2       1 UNK        -0.5181 
     37 C          27.7054    1.5397   -6.6326 C.2       5 UNK         0.5014 
     38 O          27.5147    1.0535   -7.7510 O.2       5 UNK        -0.5248 
     39 N          28.7065    2.3891   -6.3567 N.am      6 UNK        -0.4434 
     40 CA         29.7997    2.7713   -7.2548 C.3       6 UNK         0.0363 
     41 CB         30.7375    3.7415   -6.5218 C.3       6 UNK        -0.1936 
     42 C          29.3669    3.3607   -8.6057 C.2       6 UNK         0.5081 
     43 O          30.0865    3.1833   -9.5866 O.2       6 UNK        -0.5248 
     44 N          28.1893    3.9973   -8.6507 N.am      7 UNK        -0.4718 
     45 CA         27.5634    4.5134   -9.8720 C.3       7 UNK         0.0273 
     46 CB         26.2968    5.2979   -9.4930 C.3       7 UNK        -0.1935 
     47 C          27.2304    3.4266  -10.9141 C.2       7 UNK         0.5018 
     48 O          27.1600    3.7455  -12.1018 O.2       7 UNK        -0.5186 
     49 N          27.0382    2.1806  -10.4600 N.am      8 UNK        -0.4240 
     50 CA         26.7789    1.0138  -11.3017 C.3       8 UNK         0.0235 
     51 CB         25.4571    0.3645  -10.8611 C.3       8 UNK        -0.2000 
     52 C          27.9266   -0.0030  -11.2213 C.2       8 UNK         0.4941 
     53 O          28.3450   -0.5205  -12.2573 O.2       8 UNK        -0.5273 
     54 N          28.4004   -0.2931  -10.0020 N.am      9 UNK        -0.4262 
     55 CA         29.3534   -1.3684   -9.7200 C.3       9 UNK         0.0264 
     56 CB         29.1132   -1.8722   -8.2876 C.3       9 UNK        -0.1955 
     57 C          30.8298   -0.9783   -9.8977 C.2       9 UNK         0.5031 
     58 O          31.6680   -1.8791   -9.9521 O.2       9 UNK        -0.5390 
     59 N          31.1375    0.3286   -9.9410 N.am      10 UNK        -0.4204 
     60 CA         32.4887    0.9128   -9.9924 C.3       10 UNK         0.0237 
     61 CB         33.1917    0.5658  -11.3228 C.3       10 UNK        -0.1985 
     62 C          33.3622    0.5972   -8.7564 C.2       10 UNK         0.4970 
     63 O          34.5892    0.6555   -8.8486 O.2       10 UNK        -0.4914 
     64 N          32.7234    0.2870   -7.6199 N.am      11 UNK        -0.4285 
     65 CA         33.3622   -0.0496   -6.3375 C.3       11 UNK         0.1007 
     66 C          33.9676    1.1486   -5.5460 C.2       11 UNK         0.5703 
     67 N          33.8914    2.3806   -6.0339 N.am      11 UNK        -0.7361 
     68 O          34.5333    0.9535   -4.4729 O.2       11 UNK        -0.4986 
     69 C69        32.4380   -0.9420   -5.4652 C.3       12 UNK        -0.0947 
     70 S70        30.8222   -0.1948   -5.0507 S.3       12 UNK        -0.2240 
     71 C71        31.0540    0.2745   -3.3061 C.3       12 UNK         0.0194 
     72 H72        32.7752   -7.6361   -1.1559 H         1 UNK         0.0906 
     73 H73        32.5978   -6.7226   -2.6565 H         1 UNK         0.0906 
     74 H74        32.6632   -5.8757   -1.1098 H         1 UNK         0.0906 
     75 H75        30.6412   -5.1694   -0.4342 H         1 UNK         0.3140 
     76 H76        28.3364   -6.8583   -0.3621 H         1 UNK         0.1085 
     77 H77        27.1802   -4.7719    0.5113 H         1 UNK         0.0836 
     78 H78        28.5747   -5.2797    1.4061 H         1 UNK         0.0836 
     79 H79        26.9745   -2.0026    0.3360 H         1 UNK         0.0731 
     80 H80        27.1361   -2.8776   -1.1630 H         1 UNK         0.0731 
     81 H81        30.0109   -1.7846   -1.8894 H         1 UNK         0.1312 
     82 H82        29.1647    2.2367   -3.0853 H         1 UNK         0.1406 
     83 H83        26.3114    0.0605   -0.7397 H         1 UNK         0.1631 
     84 H84        27.1508    3.3567   -2.2727 H         1 UNK         0.0717 
     85 H85        26.1985    2.5917   -1.0288 H         1 UNK         0.0717 
     86 H86        25.3735    2.8292   -5.4827 H         1 UNK         0.0934 
     87 H87        26.8350    3.2335   -4.6423 H         1 UNK         0.0934 
     88 H88        27.4913    0.7534   -4.7020 H         1 UNK         0.0739 
     89 H89        26.1894   -0.8114   -5.2749 H         1 UNK         0.3093 
     90 H90        22.9663   -1.0601   -6.5390 H         1 UNK         0.0818 
     91 H91        23.9946   -1.3962   -8.7480 H         1 UNK         0.0819 
     92 H92        25.3954   -2.1897   -8.0379 H         1 UNK         0.0819 
     93 H93        23.8066   -2.9572   -7.9749 H         1 UNK         0.0819 
     94 H94        24.9800   -2.9597   -5.6629 H         1 UNK         0.3041 
     95 H95        24.9503   -2.2486   -2.3273 H         1 UNK         0.0784 
     96 H96        22.6712   -3.2730   -2.1463 H         1 UNK         0.0793 
     97 H97        23.1597   -4.5638   -3.2360 H         1 UNK         0.0793 
     98 H98        23.9238   -4.3990   -1.6544 H         1 UNK         0.0793 
     99 H99        25.7239   -4.7082   -3.2248 H         1 UNK         0.3024 
    100 H100       27.5833   -5.2331   -4.6898 H         1 UNK         0.1171 
    101 H101       28.8370   -3.5569   -6.0326 H         1 UNK         0.0786 
    102 H102       29.6838   -3.0002   -4.5972 H         1 UNK         0.0786 
    103 H103       29.9405   -4.6385   -5.2007 H         1 UNK         0.0786 
    104 H104       29.4595   -4.4379   -2.6366 H         1 UNK         0.2977 
    105 H105       28.7855    2.7367   -5.4134 H         1 UNK         0.3127 
    106 H106       30.3571    1.8603   -7.4724 H         1 UNK         0.0770 
    107 H107       30.2213    4.6559   -6.2268 H         1 UNK         0.0814 
    108 H108       31.5746    4.0335   -7.1573 H         1 UNK         0.0814 
    109 H109       31.1566    3.2871   -5.6236 H         1 UNK         0.0814 
    110 H110       27.6629    4.0874   -7.7941 H         1 UNK         0.2983 
    111 H111       28.2696    5.2026  -10.3402 H         1 UNK         0.0947 
    112 H112       25.8195    5.7197  -10.3788 H         1 UNK         0.0806 
    113 H113       26.5276    6.1287   -8.8260 H         1 UNK         0.0806 
    114 H114       25.5612    4.6619   -8.9985 H         1 UNK         0.0806 
    115 H115       27.1283    2.0091   -9.4633 H         1 UNK         0.3000 
    116 H116       26.6777    1.3079  -12.3486 H         1 UNK         0.0850 
    117 H117       25.2538   -0.5444  -11.4291 H         1 UNK         0.0810 
    118 H118       24.6157    1.0401  -11.0150 H         1 UNK         0.0810 
    119 H119       25.4784    0.0974   -9.8043 H         1 UNK         0.0810 
    120 H120       28.0035    0.1784   -9.1887 H         1 UNK         0.3040 
    121 H121       29.1569   -2.1985  -10.4022 H         1 UNK         0.0766 
    122 H122       29.2849   -1.0908   -7.5471 H         1 UNK         0.0812 
    123 H123       29.7841   -2.6986   -8.0496 H         1 UNK         0.0812 
    124 H124       28.0930   -2.2339   -8.1590 H         1 UNK         0.0812 
    125 H125       30.3809    1.0023   -9.9189 H         1 UNK         0.3205 
    126 H126       32.3525    1.9942   -9.9798 H         1 UNK         0.0754 
    127 H127       34.1191    1.1287  -11.4353 H         1 UNK         0.0769 
    128 H128       32.5621    0.8099  -12.1785 H         1 UNK         0.0769 
    129 H129       33.4465   -0.4926  -11.3845 H         1 UNK         0.0769 
    130 H130       31.7167    0.2525   -7.6215 H         1 UNK         0.2981 
    131 H131       34.2273   -0.6685   -6.5825 H         1 UNK         0.0541 
    132 H132       34.2980    3.1408   -5.5126 H         1 UNK         0.3459 
    133 H133       33.4697    2.5496   -6.9308 H         1 UNK         0.3459 
    134 H134       32.9520   -1.2590   -4.5568 H         1 UNK         0.0612 
    135 H135       32.2279   -1.8666   -6.0053 H         1 UNK         0.0612 
    136 H136       31.7658   -0.3970   -2.8245 H         1 UNK         0.0624 
    137 H137       31.4917    1.2726   -3.2580 H         1 UNK         0.0624 
@<TRIPOS>BOND
     1    1    2 1    
     2    1   72 1    
     3    1   73 1    
     4    1   74 1    
     5    2    3 2    
     6    2    4 am   BACKBONE|DICT|INTERRES
     7    4    5 1    
     8    4   75 1    
     9    5    6 1    
    10    5   35 1    
    11    5   76 1    
    12    6    7 1    
    13    6   77 1    
    14    6   78 1    
    15    7    8 1    
    16    8    9 1    
    17    8   79 1    
    18    8   80 1    
    19    9   10 ar   
    20    9   14 ar   
    21   10   11 ar   
    22   10   81 1    
    23   11   12 ar   
    24   11   71 1    
    25   12   13 ar   
    26   12   82 1    
    27   13   14 ar   
    28   13   15 1    
    29   14   83 1    
    30   15   16 1    
    31   15   84 1    
    32   15   85 1    
    33   16   17 1    
    34   17   18 1    
    35   17   86 1    
    36   17   87 1    
    37   18   19 1    
    38   18   37 1    
    39   18   88 1    
    40   19   20 am   BACKBONE|DICT|INTERRES
    41   19   89 1    
    42   20   21 2    
    43   20   22 1    
    44   22   23 1    
    45   22   24 1    
    46   22   90 1    
    47   23   91 1    
    48   23   92 1    
    49   23   93 1    
    50   24   25 am   BACKBONE|DICT|INTERRES
    51   24   94 1    
    52   25   26 2    
    53   25   27 1    
    54   27   28 1    
    55   27   29 1    
    56   27   95 1    
    57   28   96 1    
    58   28   97 1    
    59   28   98 1    
    60   29   30 am   BACKBONE|DICT|INTERRES
    61   29   99 1    
    62   30   31 2    
    63   30   32 1    
    64   32   33 1    
    65   32   34 1    
    66   32  100 1    
    67   33  101 1    
    68   33  102 1    
    69   33  103 1    
    70   34   35 am   BACKBONE|DICT|INTERRES
    71   34  104 1    
    72   35   36 2    
    73   37   38 2    
    74   37   39 am   BACKBONE|DICT|INTERRES
    75   39   40 1    
    76   39  105 1    
    77   40   41 1    
    78   40   42 1    
    79   40  106 1    
    80   41  107 1    
    81   41  108 1    
    82   41  109 1    
    83   42   43 2    
    84   42   44 am   BACKBONE|DICT|INTERRES
    85   44   45 1    
    86   44  110 1    
    87   45   46 1    
    88   45   47 1    
    89   45  111 1    
    90   46  112 1    
    91   46  113 1    
    92   46  114 1    
    93   47   48 2    
    94   47   49 am   BACKBONE|DICT|INTERRES
    95   49   50 1    
    96   49  115 1    
    97   50   51 1    
    98   50   52 1    
    99   50  116 1    
   100   51  117 1    
   101   51  118 1    
   102   51  119 1    
   103   52   53 2    
   104   52   54 am   BACKBONE|DICT|INTERRES
   105   54   55 1    
   106   54  120 1    
   107   55   56 1    
   108   55   57 1    
   109   55  121 1    
   110   56  122 1    
   111   56  123 1    
   112   56  124 1    
   113   57   58 2    
   114   57   59 am   BACKBONE|DICT|INTERRES
   115   59   60 1    
   116   59  125 1    
   117   60   61 1    
   118   60   62 1    
   119   60  126 1    
   120   61  127 1    
   121   61  128 1    
   122   61  129 1    
   123   62   63 2    
   124   62   64 am   BACKBONE|DICT|INTERRES
   125   64   65 1    
   126   64  130 1    
   127   65   66 1    
   128   65   69 1    
   129   65  131 1    
   130   66   67 am   BACKBONE|DICT|INTERRES
   131   66   68 2    
   132   67  132 1    
   133   67  133 1    
   134   69   70 1    
   135   69  134 1    
   136   69  135 1    
   137   70   71 1    
   138   71  136 1    
   139   71  137 1    
@<TRIPOS>SUBSTRUCTURE
     1 UNK         1 GROUP             0       ****    0 ROOT    
