@<TRIPOS>MOLECULE
3R137
137   139    1
SMALL
USER_CHARGES


@<TRIPOS>ATOM
      1 CA         26.4425   -6.1140    0.8829 C.3       0 UNK        -0.2020 
      2 C          26.4238   -5.4593   -0.4905 C.2       0 UNK         0.4855 
      3 O          25.7611   -5.9681   -1.3942 O.2       0 UNK        -0.5197 
      4 N          27.1468   -4.3394   -0.6412 N.am      1 UNK        -0.4892 
      5 CA         27.2810   -3.5312   -1.8632 C.3       1 UNK         0.0835 
      6 C6         28.0314   -4.2533   -3.0180 C.3       12 UNK        -0.0855 
      7 S7         29.7032   -4.8201   -2.5496 S.3       12 UNK        -0.2931 
      8 C8         30.7351   -4.1106   -3.8860 C.3       12 UNK         0.0378 
      9 C9         31.0282   -2.6090   -3.8007 C.ar      12 UNK        -0.0802 
     10 C10        31.7795   -2.0238   -4.8255 C.ar      12 UNK        -0.0944 
     11 C11        32.1195   -0.6681   -4.7854 C.ar      12 UNK        -0.0787 
     12 C12        31.6696    0.1229   -3.7252 C.ar      12 UNK        -0.0862 
     13 C13        30.9012   -0.4390   -2.7024 C.ar      12 UNK        -0.0733 
     14 C14        30.6047   -1.8043   -2.7349 C.ar      12 UNK        -0.0832 
     15 C15        30.4025    0.4222   -1.5503 C.3       12 UNK         0.0240 
     16 S16        29.1293    1.6155   -2.0759 S.3       12 UNK        -0.2522 
     17 C17        27.8181    0.5439   -2.7638 C.3       12 UNK        -0.0967 
     18 CA         27.7207    0.6429   -4.3079 C.3       5 UNK         0.0660 
     19 N          26.9391   -0.4505   -4.8926 N.am      5 UNK        -0.4015 
     20 C          26.9463   -0.7664   -6.1970 C.2       4 UNK         0.4946 
     21 O          27.6884   -0.2401   -7.0252 O.2       4 UNK        -0.5353 
     22 CA         25.9143   -1.7986   -6.6796 C.3       4 UNK         0.0277 
     23 CB         26.4982   -3.2204   -6.6781 C.3       4 UNK        -0.1981 
     24 N          24.6731   -1.7567   -5.9004 N.am      4 UNK        -0.4209 
     25 C          23.7703   -0.7695   -6.0060 C.2       3 UNK         0.4942 
     26 O          23.8839    0.1698   -6.7911 O.2       3 UNK        -0.5208 
     27 CA         22.5577   -0.7967   -5.0595 C.3       3 UNK         0.0250 
     28 CB         21.4030   -1.5897   -5.6912 C.3       3 UNK        -0.1990 
     29 N          22.8474   -1.3335   -3.7287 N.am      3 UNK        -0.4232 
     30 C          23.7542   -0.8443   -2.8715 C.2       2 UNK         0.4993 
     31 O          24.4671    0.1316   -3.1153 O.2       2 UNK        -0.5286 
     32 CA         23.9421   -1.5983   -1.5385 C.3       2 UNK         0.0209 
     33 CB         22.8708   -2.6805   -1.2705 C.3       2 UNK        -0.1931 
     34 N          25.2803   -2.1930   -1.4078 N.am      2 UNK        -0.4546 
     35 C          25.9186   -2.9577   -2.3089 C.2       1 UNK         0.5154 
     36 O          25.4720   -3.2168   -3.4283 O.2       1 UNK        -0.5181 
     37 C          27.1591    2.0035   -4.7673 C.2       5 UNK         0.5014 
     38 O          27.9281    2.8533   -5.2165 O.2       5 UNK        -0.5248 
     39 N          25.8281    2.1666   -4.6931 N.am      6 UNK        -0.4434 
     40 CA         25.1057    3.3650   -5.1343 C.3       6 UNK         0.0363 
     41 CB         23.6184    3.2348   -4.7708 C.3       6 UNK        -0.1936 
     42 C          25.2764    3.6651   -6.6353 C.2       6 UNK         0.5081 
     43 O          25.4650    4.8249   -7.0029 O.2       6 UNK        -0.5248 
     44 N          25.2401    2.6175   -7.4700 N.am      7 UNK        -0.4718 
     45 CA         25.5036    2.6873   -8.9109 C.3       7 UNK         0.0273 
     46 CB         24.9392    1.4236   -9.5815 C.3       7 UNK        -0.1935 
     47 C          26.9953    2.8466   -9.2626 C.2       7 UNK         0.5018 
     48 O          27.2988    3.1729  -10.4109 O.2       7 UNK        -0.5186 
     49 N          27.8865    2.5950   -8.2913 N.am      8 UNK        -0.4240 
     50 CA         29.3488    2.5551   -8.3994 C.3       8 UNK         0.0235 
     51 CB         29.9208    3.9630   -8.6695 C.3       8 UNK        -0.2000 
     52 C          29.8330    1.4937   -9.4067 C.2       8 UNK         0.4941 
     53 O          30.6916    1.7792  -10.2443 O.2       8 UNK        -0.5273 
     54 N          29.2572    0.2884   -9.3143 N.am      9 UNK        -0.4262 
     55 CA         29.6507   -0.8804  -10.0978 C.3       9 UNK         0.0264 
     56 CB         28.4685   -1.8598  -10.1678 C.3       9 UNK        -0.1955 
     57 C          30.8770   -1.5438   -9.4539 C.2       9 UNK         0.5031 
     58 O          30.9310   -1.6437   -8.2272 O.2       9 UNK        -0.5390 
     59 N          31.8172   -1.9999  -10.2930 N.am      10 UNK        -0.4204 
     60 CA         33.1503   -2.5042   -9.9327 C.3       10 UNK         0.0237 
     61 CB         33.0694   -3.7422   -9.0074 C.3       10 UNK        -0.1985 
     62 C          34.0601   -1.3743   -9.4025 C.2       10 UNK         0.4970 
     63 O          33.8812   -0.2219   -9.8019 O.2       10 UNK        -0.4914 
     64 N          35.0481   -1.7246   -8.5664 N.am      11 UNK        -0.4285 
     65 CA         36.0882   -0.8257   -8.0241 C.3       11 UNK         0.1007 
     66 C          37.0668   -0.2449   -9.0939 C.2       11 UNK         0.5703 
     67 N          37.1797   -0.8387  -10.2768 N.am      11 UNK        -0.7361 
     68 O          37.7644    0.7356   -8.8430 O.2       11 UNK        -0.4986 
     69 C69        35.5234    0.2647   -7.0642 C.3       12 UNK        -0.0947 
     70 S70        34.7418   -0.4478   -5.5800 S.3       12 UNK        -0.2240 
     71 C71        32.9901   -0.0683   -5.8781 C.3       12 UNK         0.0194 
     72 H72        26.8336   -7.1284    0.8086 H         1 UNK         0.0906 
     73 H73        27.0617   -5.5638    1.5912 H         1 UNK         0.0906 
     74 H74        25.4318   -6.1673    1.2867 H         1 UNK         0.0906 
     75 H75        27.6686   -3.9968    0.1539 H         1 UNK         0.3140 
     76 H76        27.8771   -2.6658   -1.5785 H         1 UNK         0.1085 
     77 H77        28.1248   -3.5803   -3.8716 H         1 UNK         0.0836 
     78 H78        27.4625   -5.1152   -3.3713 H         1 UNK         0.0836 
     79 H79        30.2687   -4.3326   -4.8472 H         1 UNK         0.0731 
     80 H80        31.6888   -4.6403   -3.8820 H         1 UNK         0.0731 
     81 H81        32.1233   -2.6293   -5.6534 H         1 UNK         0.1312 
     82 H82        31.9188    1.1749   -3.6916 H         1 UNK         0.1406 
     83 H83        30.0508   -2.2323   -1.9150 H         1 UNK         0.1631 
     84 H84        31.2433    0.9703   -1.1229 H         1 UNK         0.0717 
     85 H85        30.0001   -0.1941   -0.7448 H         1 UNK         0.0717 
     86 H86        28.0205   -0.4845   -2.4705 H         1 UNK         0.0934 
     87 H87        26.8717    0.8052   -2.2874 H         1 UNK         0.0934 
     88 H88        28.7333    0.5544   -4.7098 H         1 UNK         0.0739 
     89 H89        26.2430   -0.8814   -4.3001 H         1 UNK         0.3093 
     90 H90        25.6739   -1.5466   -7.7150 H         1 UNK         0.0818 
     91 H91        27.4533   -3.2561   -7.2028 H         1 UNK         0.0819 
     92 H92        26.6731   -3.5915   -5.6709 H         1 UNK         0.0819 
     93 H93        25.8281   -3.9205   -7.1769 H         1 UNK         0.0819 
     94 H94        24.5592   -2.4623   -5.1797 H         1 UNK         0.3041 
     95 H95        22.2261    0.2344   -4.9256 H         1 UNK         0.0784 
     96 H96        21.1509   -1.1932   -6.6760 H         1 UNK         0.0793 
     97 H97        21.6577   -2.6426   -5.8194 H         1 UNK         0.0793 
     98 H98        20.5010   -1.5329   -5.0815 H         1 UNK         0.0793 
     99 H99        22.3343   -2.1581   -3.4530 H         1 UNK         0.3024 
    100 H100       23.8533   -0.8418   -0.7568 H         1 UNK         0.1171 
    101 H101       22.9943   -3.1090   -0.2756 H         1 UNK         0.0786 
    102 H102       21.8630   -2.2645   -1.3102 H         1 UNK         0.0786 
    103 H103       22.9273   -3.5029   -1.9851 H         1 UNK         0.0786 
    104 H104       25.7387   -2.0294   -0.5221 H         1 UNK         0.2977 
    105 H105       25.2730    1.4277   -4.2668 H         1 UNK         0.3127 
    106 H106       25.5171    4.2118   -4.5810 H         1 UNK         0.0770 
    107 H107       23.1412    2.4196   -5.3141 H         1 UNK         0.0814 
    108 H108       23.0772    4.1492   -5.0171 H         1 UNK         0.0814 
    109 H109       23.4824    3.0534   -3.7045 H         1 UNK         0.0814 
    110 H110       24.9831    1.7048   -7.1006 H         1 UNK         0.2983 
    111 H111       24.9790    3.5551   -9.3165 H         1 UNK         0.0947 
    112 H112       25.0778    1.4569  -10.6630 H         1 UNK         0.0806 
    113 H113       23.8702    1.3186   -9.3952 H         1 UNK         0.0806 
    114 H114       25.4332    0.5221   -9.2166 H         1 UNK         0.0806 
    115 H115       27.5217    2.3402   -7.3819 H         1 UNK         0.3000 
    116 H116       29.7145    2.2329   -7.4228 H         1 UNK         0.0850 
    117 H117       31.0109    3.9533   -8.6360 H         1 UNK         0.0810 
    118 H118       29.5798    4.6777   -7.9204 H         1 UNK         0.0810 
    119 H119       29.6292    4.3387   -9.6507 H         1 UNK         0.0810 
    120 H120       28.6284    0.1137   -8.5300 H         1 UNK         0.3040 
    121 H121       29.8988   -0.5624  -11.1128 H         1 UNK         0.0766 
    122 H122       27.5958   -1.3959  -10.6278 H         1 UNK         0.0812 
    123 H123       28.1787   -2.2064   -9.1762 H         1 UNK         0.0812 
    124 H124       28.7225   -2.7391  -10.7611 H         1 UNK         0.0812 
    125 H125       31.6729   -1.8511  -11.2822 H         1 UNK         0.3205 
    126 H126       33.6014   -2.8313  -10.8706 H         1 UNK         0.0754 
    127 H127       32.3378   -4.4613   -9.3761 H         1 UNK         0.0769 
    128 H128       32.7857   -3.4754   -7.9887 H         1 UNK         0.0769 
    129 H129       34.0256   -4.2638   -8.9566 H         1 UNK         0.0769 
    130 H130       35.1308   -2.6942   -8.2989 H         1 UNK         0.2981 
    131 H131       36.7280   -1.4707   -7.4209 H         1 UNK         0.0541 
    132 H132       37.8230   -0.4635  -10.9560 H         1 UNK         0.3459 
    133 H133       36.6329   -1.6551  -10.4963 H         1 UNK         0.3459 
    134 H134       36.3246    0.9113   -6.7028 H         1 UNK         0.0612 
    135 H135       34.8230    0.9208   -7.5826 H         1 UNK         0.0612 
    136 H136       32.8547    1.0131   -5.9289 H         1 UNK         0.0624 
    137 H137       32.6984   -0.4636   -6.8493 H         1 UNK         0.0624 
@<TRIPOS>BOND
     1    1    2 1    
     2    1   72 1    
     3    1   73 1    
     4    1   74 1    
     5    2    3 2    
     6    2    4 am   BACKBONE|DICT|INTERRES
     7    4    5 1    
     8    4   75 1    
     9    5    6 1    
    10    5   35 1    
    11    5   76 1    
    12    6    7 1    
    13    6   77 1    
    14    6   78 1    
    15    7    8 1    
    16    8    9 1    
    17    8   79 1    
    18    8   80 1    
    19    9   10 ar   
    20    9   14 ar   
    21   10   11 ar   
    22   10   81 1    
    23   11   12 ar   
    24   11   71 1    
    25   12   13 ar   
    26   12   82 1    
    27   13   14 ar   
    28   13   15 1    
    29   14   83 1    
    30   15   16 1    
    31   15   84 1    
    32   15   85 1    
    33   16   17 1    
    34   17   18 1    
    35   17   86 1    
    36   17   87 1    
    37   18   19 1    
    38   18   37 1    
    39   18   88 1    
    40   19   20 am   BACKBONE|DICT|INTERRES
    41   19   89 1    
    42   20   21 2    
    43   20   22 1    
    44   22   23 1    
    45   22   24 1    
    46   22   90 1    
    47   23   91 1    
    48   23   92 1    
    49   23   93 1    
    50   24   25 am   BACKBONE|DICT|INTERRES
    51   24   94 1    
    52   25   26 2    
    53   25   27 1    
    54   27   28 1    
    55   27   29 1    
    56   27   95 1    
    57   28   96 1    
    58   28   97 1    
    59   28   98 1    
    60   29   30 am   BACKBONE|DICT|INTERRES
    61   29   99 1    
    62   30   31 2    
    63   30   32 1    
    64   32   33 1    
    65   32   34 1    
    66   32  100 1    
    67   33  101 1    
    68   33  102 1    
    69   33  103 1    
    70   34   35 am   BACKBONE|DICT|INTERRES
    71   34  104 1    
    72   35   36 2    
    73   37   38 2    
    74   37   39 am   BACKBONE|DICT|INTERRES
    75   39   40 1    
    76   39  105 1    
    77   40   41 1    
    78   40   42 1    
    79   40  106 1    
    80   41  107 1    
    81   41  108 1    
    82   41  109 1    
    83   42   43 2    
    84   42   44 am   BACKBONE|DICT|INTERRES
    85   44   45 1    
    86   44  110 1    
    87   45   46 1    
    88   45   47 1    
    89   45  111 1    
    90   46  112 1    
    91   46  113 1    
    92   46  114 1    
    93   47   48 2    
    94   47   49 am   BACKBONE|DICT|INTERRES
    95   49   50 1    
    96   49  115 1    
    97   50   51 1    
    98   50   52 1    
    99   50  116 1    
   100   51  117 1    
   101   51  118 1    
   102   51  119 1    
   103   52   53 2    
   104   52   54 am   BACKBONE|DICT|INTERRES
   105   54   55 1    
   106   54  120 1    
   107   55   56 1    
   108   55   57 1    
   109   55  121 1    
   110   56  122 1    
   111   56  123 1    
   112   56  124 1    
   113   57   58 2    
   114   57   59 am   BACKBONE|DICT|INTERRES
   115   59   60 1    
   116   59  125 1    
   117   60   61 1    
   118   60   62 1    
   119   60  126 1    
   120   61  127 1    
   121   61  128 1    
   122   61  129 1    
   123   62   63 2    
   124   62   64 am   BACKBONE|DICT|INTERRES
   125   64   65 1    
   126   64  130 1    
   127   65   66 1    
   128   65   69 1    
   129   65  131 1    
   130   66   67 am   BACKBONE|DICT|INTERRES
   131   66   68 2    
   132   67  132 1    
   133   67  133 1    
   134   69   70 1    
   135   69  134 1    
   136   69  135 1    
   137   70   71 1    
   138   71  136 1    
   139   71  137 1    
@<TRIPOS>SUBSTRUCTURE
     1 UNK         1 GROUP             0       ****    0 ROOT    
