@<TRIPOS>MOLECULE
3R137
137   139    1
SMALL
USER_CHARGES


@<TRIPOS>ATOM
      1 CA         26.8381   -0.4039    4.2057 C.3       0 UNK        -0.2020 
      2 C          27.0279   -0.3891    2.6961 C.2       0 UNK         0.4855 
      3 O          26.4590    0.4657    2.0160 O.2       0 UNK        -0.5197 
      4 N          27.8293   -1.3226    2.1673 N.am      1 UNK        -0.4892 
      5 CA         28.0669   -1.4990    0.7310 C.3       1 UNK         0.0835 
      6 C6         29.3599   -2.3148    0.4803 C.3       12 UNK        -0.0855 
      7 S7         30.0171   -2.0845   -1.2070 S.3       12 UNK        -0.2931 
      8 C8         29.8057   -3.7655   -1.8859 C.3       12 UNK         0.0378 
      9 C9         30.1124   -3.8736   -3.3781 C.ar      12 UNK        -0.0802 
     10 C10        31.1896   -3.1905   -3.9525 C.ar      12 UNK        -0.0944 
     11 C11        31.4774   -3.3173   -5.3150 C.ar      12 UNK        -0.0787 
     12 C12        30.6900   -4.1629   -6.1058 C.ar      12 UNK        -0.0862 
     13 C13        29.6290   -4.8800   -5.5401 C.ar      12 UNK        -0.0733 
     14 C14        29.3414   -4.7202   -4.1807 C.ar      12 UNK        -0.0832 
     15 C15        28.8435   -5.8952   -6.3657 C.3       12 UNK         0.0240 
     16 S16        27.8902   -5.1624   -7.7333 S.3       12 UNK        -0.2522 
     17 C17        26.6393   -4.1604   -6.8574 C.3       12 UNK        -0.0967 
     18 CA         26.4128   -2.7911   -7.5444 C.3       5 UNK         0.0660 
     19 N          25.1888   -2.1310   -7.0803 N.am      5 UNK        -0.4015 
     20 C          24.6624   -1.0247   -7.6295 C.2       4 UNK         0.4946 
     21 O          25.1498   -0.4345   -8.5924 O.2       4 UNK        -0.5353 
     22 CA         23.4338   -0.4343   -6.9356 C.3       4 UNK         0.0277 
     23 CB         22.2292   -1.3945   -6.9566 C.3       4 UNK        -0.1981 
     24 N          23.8247   -0.0986   -5.5745 N.am      4 UNK        -0.4209 
     25 C          23.2364    0.7564   -4.7395 C.2       3 UNK         0.4942 
     26 O          22.1885    1.3523   -4.9949 O.2       3 UNK        -0.5208 
     27 CA         23.9657    0.9836   -3.3953 C.3       3 UNK         0.0250 
     28 CB         23.1610    1.8769   -2.4321 C.3       3 UNK        -0.1990 
     29 N          24.3436   -0.2512   -2.6897 N.am      3 UNK        -0.4232 
     30 C          25.2751   -1.1392   -3.0651 C.2       2 UNK         0.4993 
     31 O          25.9244   -1.0592   -4.1123 O.2       2 UNK        -0.5286 
     32 CA         25.5679   -2.2794   -2.0906 C.3       2 UNK         0.0209 
     33 CB         25.9617   -3.5781   -2.8189 C.3       2 UNK        -0.1931 
     34 N          26.6707   -1.8319   -1.2505 N.am      2 UNK        -0.4546 
     35 C          26.8371   -2.1311    0.0408 C.2       1 UNK         0.5154 
     36 O          26.0864   -2.8805    0.6724 O.2       1 UNK        -0.5181 
     37 C          27.6461   -1.8772   -7.4193 C.2       5 UNK         0.5014 
     38 O          28.3914   -1.7413   -8.3898 O.2       5 UNK        -0.5248 
     39 N          27.8176   -1.2318   -6.2558 N.am      6 UNK        -0.4434 
     40 CA         28.9419   -0.3312   -5.9981 C.3       6 UNK         0.0363 
     41 CB         28.9974    0.0218   -4.5047 C.3       6 UNK        -0.1936 
     42 C          28.9040    0.9375   -6.8642 C.2       6 UNK         0.5081 
     43 O          29.9583    1.4289   -7.2683 O.2       6 UNK        -0.5248 
     44 N          27.6888    1.4176   -7.1641 N.am      7 UNK        -0.4718 
     45 CA         27.4355    2.5347   -8.0728 C.3       7 UNK         0.0273 
     46 CB         25.9893    3.0270   -7.8980 C.3       7 UNK        -0.1935 
     47 C          27.7226    2.1637   -9.5366 C.2       7 UNK         0.5018 
     48 O          28.3699    2.9435  -10.2347 O.2       7 UNK        -0.5186 
     49 N          27.2660    0.9768   -9.9651 N.am      8 UNK        -0.4240 
     50 CA         27.5039    0.4232  -11.3014 C.3       8 UNK         0.0235 
     51 CB         26.6359   -0.8285  -11.5082 C.3       8 UNK        -0.2000 
     52 C          28.9855    0.1065  -11.5623 C.2       8 UNK         0.4941 
     53 O          29.4882    0.4210  -12.6419 O.2       8 UNK        -0.5273 
     54 N          29.6612   -0.4876  -10.5685 N.am      9 UNK        -0.4262 
     55 CA         31.0993   -0.7663  -10.5923 C.3       9 UNK         0.0264 
     56 CB         31.4438   -1.7433   -9.4561 C.3       9 UNK        -0.1955 
     57 C          31.9647    0.5009  -10.4777 C.2       9 UNK         0.5031 
     58 O          33.1040    0.4880  -10.9458 O.2       9 UNK        -0.5390 
     59 N          31.4196    1.5498   -9.8415 N.am      10 UNK        -0.4204 
     60 CA         32.0594    2.8251   -9.4977 C.3       10 UNK         0.0237 
     61 CB         32.4009    3.6346  -10.7667 C.3       10 UNK        -0.1985 
     62 C          33.2600    2.6434   -8.5475 C.2       10 UNK         0.4970 
     63 O          34.2497    3.3700   -8.6568 O.2       10 UNK        -0.4914 
     64 N          33.1516    1.6652   -7.6398 N.am      11 UNK        -0.4285 
     65 CA         34.1921    1.2931   -6.6704 C.3       11 UNK         0.1007 
     66 C          34.2270    2.1749   -5.3878 C.2       11 UNK         0.5703 
     67 N          33.2607    3.0576   -5.1603 N.am      11 UNK        -0.7361 
     68 O          35.1603    2.0698   -4.5953 O.2       11 UNK        -0.4986 
     69 C69        34.1534   -0.2265   -6.3552 C.3       12 UNK        -0.0947 
     70 S70        32.5701   -0.7820   -5.6447 S.3       12 UNK        -0.2240 
     71 C71        32.6720   -2.5804   -5.9106 C.3       12 UNK         0.0194 
     72 H72        27.4098   -1.2004    4.6817 H         1 UNK         0.0906 
     73 H73        27.1589    0.5455    4.6337 H         1 UNK         0.0906 
     74 H74        25.7861   -0.5496    4.4496 H         1 UNK         0.0906 
     75 H75        28.2395   -2.0220    2.7700 H         1 UNK         0.3140 
     76 H76        28.2088   -0.5008    0.3088 H         1 UNK         0.1085 
     77 H77        30.1437   -1.9826    1.1634 H         1 UNK         0.0836 
     78 H78        29.2091   -3.3741    0.6985 H         1 UNK         0.0836 
     79 H79        30.4584   -4.4518   -1.3450 H         1 UNK         0.0731 
     80 H80        28.7820   -4.0889   -1.6916 H         1 UNK         0.0731 
     81 H81        31.8125   -2.5547   -3.3387 H         1 UNK         0.1312 
     82 H82        30.9168   -4.2878   -7.1558 H         1 UNK         0.1406 
     83 H83        28.5319   -5.2841   -3.7371 H         1 UNK         0.1631 
     84 H84        28.1627   -6.4690   -5.7348 H         1 UNK         0.0717 
     85 H85        29.5450   -6.6180   -6.7845 H         1 UNK         0.0717 
     86 H86        25.7119   -4.7352   -6.8526 H         1 UNK         0.0934 
     87 H87        26.9190   -4.0306   -5.8110 H         1 UNK         0.0934 
     88 H88        26.2656   -2.9781   -8.6107 H         1 UNK         0.0739 
     89 H89        24.7298   -2.5443   -6.2825 H         1 UNK         0.3093 
     90 H90        23.1618    0.4848   -7.4592 H         1 UNK         0.0818 
     91 H91        21.3389   -0.9171   -6.5470 H         1 UNK         0.0819 
     92 H92        21.9905   -1.6980   -7.9768 H         1 UNK         0.0819 
     93 H93        22.4136   -2.3000   -6.3780 H         1 UNK         0.0819 
     94 H94        24.6947   -0.5120   -5.2399 H         1 UNK         0.3041 
     95 H95        24.8886    1.5152   -3.6374 H         1 UNK         0.0784 
     96 H96        22.9239    2.8374   -2.8919 H         1 UNK         0.0793 
     97 H97        22.2177    1.4110   -2.1443 H         1 UNK         0.0793 
     98 H98        23.7234    2.0893   -1.5226 H         1 UNK         0.0793 
     99 H99        23.8647   -0.4117   -1.8150 H         1 UNK         0.3024 
    100 H100       24.6768   -2.4683   -1.4871 H         1 UNK         0.1171 
    101 H101       26.8648   -3.4438   -3.4139 H         1 UNK         0.0786 
    102 H102       25.1688   -3.9058   -3.4921 H         1 UNK         0.0786 
    103 H103       26.1443   -4.3878   -2.1123 H         1 UNK         0.0786 
    104 H104       27.3373   -1.2198   -1.7029 H         1 UNK         0.2977 
    105 H105       27.1471   -1.3506   -5.4997 H         1 UNK         0.3127 
    106 H106       29.8481   -0.8780   -6.2567 H         1 UNK         0.0770 
    107 H107       29.0642   -0.8771   -3.8919 H         1 UNK         0.0814 
    108 H108       28.1185    0.5835   -4.1869 H         1 UNK         0.0814 
    109 H109       29.8753    0.6300   -4.2829 H         1 UNK         0.0814 
    110 H110       26.8839    0.9246   -6.8080 H         1 UNK         0.2983 
    111 H111       28.1079    3.3515   -7.8002 H         1 UNK         0.0947 
    112 H112       25.7886    3.8794   -8.5483 H         1 UNK         0.0806 
    113 H113       25.8015    3.3508   -6.8742 H         1 UNK         0.0806 
    114 H114       25.2614    2.2532   -8.1434 H         1 UNK         0.0806 
    115 H115       26.6900    0.4172   -9.3404 H         1 UNK         0.3000 
    116 H116       27.1942    1.1751  -12.0304 H         1 UNK         0.0850 
    117 H117       26.7870   -1.2501  -12.5028 H         1 UNK         0.0810 
    118 H118       25.5755   -0.5946  -11.4122 H         1 UNK         0.0810 
    119 H119       26.8718   -1.6077  -10.7824 H         1 UNK         0.0810 
    120 H120       29.1516   -0.7921   -9.7384 H         1 UNK         0.3040 
    121 H121       31.3383   -1.2467  -11.5434 H         1 UNK         0.0766 
    122 H122       32.5071   -1.9866   -9.4563 H         1 UNK         0.0812 
    123 H123       30.8949   -2.6798   -9.5571 H         1 UNK         0.0812 
    124 H124       31.2039   -1.3221   -8.4788 H         1 UNK         0.0812 
    125 H125       30.4941    1.4248   -9.4496 H         1 UNK         0.3205 
    126 H126       31.3142    3.3919   -8.9374 H         1 UNK         0.0754 
    127 H127       32.7466    4.6368  -10.5103 H         1 UNK         0.0769 
    128 H128       31.5268    3.7484  -11.4082 H         1 UNK         0.0769 
    129 H129       33.1881    3.1590  -11.3525 H         1 UNK         0.0769 
    130 H130       32.2768    1.1618   -7.5676 H         1 UNK         0.2981 
    131 H131       35.1555    1.4714   -7.1517 H         1 UNK         0.0541 
    132 H132       32.4870    3.1403   -5.8000 H         1 UNK         0.3459 
    133 H133       33.2975    3.6287   -4.3311 H         1 UNK         0.3459 
    134 H134       34.9597   -0.5029   -5.6735 H         1 UNK         0.0612 
    135 H135       34.3333   -0.7877   -7.2736 H         1 UNK         0.0612 
    136 H136       32.7553   -2.7784   -6.9797 H         1 UNK         0.0624 
    137 H137       33.5856   -2.9582   -5.4498 H         1 UNK         0.0624 
@<TRIPOS>BOND
     1    1    2 1    
     2    1   72 1    
     3    1   73 1    
     4    1   74 1    
     5    2    3 2    
     6    2    4 am   BACKBONE|DICT|INTERRES
     7    4    5 1    
     8    4   75 1    
     9    5    6 1    
    10    5   35 1    
    11    5   76 1    
    12    6    7 1    
    13    6   77 1    
    14    6   78 1    
    15    7    8 1    
    16    8    9 1    
    17    8   79 1    
    18    8   80 1    
    19    9   10 ar   
    20    9   14 ar   
    21   10   11 ar   
    22   10   81 1    
    23   11   12 ar   
    24   11   71 1    
    25   12   13 ar   
    26   12   82 1    
    27   13   14 ar   
    28   13   15 1    
    29   14   83 1    
    30   15   16 1    
    31   15   84 1    
    32   15   85 1    
    33   16   17 1    
    34   17   18 1    
    35   17   86 1    
    36   17   87 1    
    37   18   19 1    
    38   18   37 1    
    39   18   88 1    
    40   19   20 am   BACKBONE|DICT|INTERRES
    41   19   89 1    
    42   20   21 2    
    43   20   22 1    
    44   22   23 1    
    45   22   24 1    
    46   22   90 1    
    47   23   91 1    
    48   23   92 1    
    49   23   93 1    
    50   24   25 am   BACKBONE|DICT|INTERRES
    51   24   94 1    
    52   25   26 2    
    53   25   27 1    
    54   27   28 1    
    55   27   29 1    
    56   27   95 1    
    57   28   96 1    
    58   28   97 1    
    59   28   98 1    
    60   29   30 am   BACKBONE|DICT|INTERRES
    61   29   99 1    
    62   30   31 2    
    63   30   32 1    
    64   32   33 1    
    65   32   34 1    
    66   32  100 1    
    67   33  101 1    
    68   33  102 1    
    69   33  103 1    
    70   34   35 am   BACKBONE|DICT|INTERRES
    71   34  104 1    
    72   35   36 2    
    73   37   38 2    
    74   37   39 am   BACKBONE|DICT|INTERRES
    75   39   40 1    
    76   39  105 1    
    77   40   41 1    
    78   40   42 1    
    79   40  106 1    
    80   41  107 1    
    81   41  108 1    
    82   41  109 1    
    83   42   43 2    
    84   42   44 am   BACKBONE|DICT|INTERRES
    85   44   45 1    
    86   44  110 1    
    87   45   46 1    
    88   45   47 1    
    89   45  111 1    
    90   46  112 1    
    91   46  113 1    
    92   46  114 1    
    93   47   48 2    
    94   47   49 am   BACKBONE|DICT|INTERRES
    95   49   50 1    
    96   49  115 1    
    97   50   51 1    
    98   50   52 1    
    99   50  116 1    
   100   51  117 1    
   101   51  118 1    
   102   51  119 1    
   103   52   53 2    
   104   52   54 am   BACKBONE|DICT|INTERRES
   105   54   55 1    
   106   54  120 1    
   107   55   56 1    
   108   55   57 1    
   109   55  121 1    
   110   56  122 1    
   111   56  123 1    
   112   56  124 1    
   113   57   58 2    
   114   57   59 am   BACKBONE|DICT|INTERRES
   115   59   60 1    
   116   59  125 1    
   117   60   61 1    
   118   60   62 1    
   119   60  126 1    
   120   61  127 1    
   121   61  128 1    
   122   61  129 1    
   123   62   63 2    
   124   62   64 am   BACKBONE|DICT|INTERRES
   125   64   65 1    
   126   64  130 1    
   127   65   66 1    
   128   65   69 1    
   129   65  131 1    
   130   66   67 am   BACKBONE|DICT|INTERRES
   131   66   68 2    
   132   67  132 1    
   133   67  133 1    
   134   69   70 1    
   135   69  134 1    
   136   69  135 1    
   137   70   71 1    
   138   71  136 1    
   139   71  137 1    
@<TRIPOS>SUBSTRUCTURE
     1 UNK         1 GROUP             0       ****    0 ROOT    
