@<TRIPOS>MOLECULE
3R137
137   139    1
SMALL
USER_CHARGES


@<TRIPOS>ATOM
      1 CA         25.4936   -0.9149    4.4819 C.3       0 UNK        -0.2020 
      2 C          25.9515   -0.5109    3.0883 C.2       0 UNK         0.4855 
      3 O          26.0730    0.6816    2.8057 O.2       0 UNK        -0.5197 
      4 N          26.2146   -1.4935    2.2177 N.am      1 UNK        -0.4892 
      5 CA         26.5923   -1.2849    0.8169 C.3       1 UNK         0.0835 
      6 C6         27.2220   -2.5660    0.2175 C.3       12 UNK        -0.0855 
      7 S7         28.0819   -2.2640   -1.3642 S.3       12 UNK        -0.2931 
      8 C8         29.5494   -3.3229   -1.1715 C.3       12 UNK         0.0378 
      9 C9         30.2205   -3.5651   -2.5134 C.ar      12 UNK        -0.0802 
     10 C10        31.4138   -2.9179   -2.8493 C.ar      12 UNK        -0.0944 
     11 C11        32.0053   -3.1287   -4.1001 C.ar      12 UNK        -0.0787 
     12 C12        31.4012   -4.0020   -5.0118 C.ar      12 UNK        -0.0862 
     13 C13        30.2225   -4.6728   -4.6731 C.ar      12 UNK        -0.0733 
     14 C14        29.6372   -4.4480   -3.4251 C.ar      12 UNK        -0.0832 
     15 C15        29.5842   -5.6660   -5.6300 C.3       12 UNK         0.0240 
     16 S16        28.1305   -4.9576   -6.4608 S.3       12 UNK        -0.2522 
     17 C17        28.8532   -4.2796   -7.9964 C.3       12 UNK        -0.0967 
     18 CA         28.4246   -2.8254   -8.3194 C.3       5 UNK         0.0660 
     19 N          26.9891   -2.6108   -8.1231 N.am      5 UNK        -0.4015 
     20 C          26.2994   -1.5417   -8.5364 C.2       4 UNK         0.4946 
     21 O          26.7901   -0.6257   -9.1988 O.2       4 UNK        -0.5353 
     22 CA         24.8341   -1.4431   -8.0734 C.3       4 UNK         0.0277 
     23 CB         23.9024   -2.0834   -9.1135 C.3       4 UNK        -0.1981 
     24 N          24.5676   -2.0212   -6.7447 N.am      4 UNK        -0.4209 
     25 C          25.1922   -1.6602   -5.6143 C.2       3 UNK         0.4942 
     26 O          26.1305   -0.8627   -5.5844 O.2       3 UNK        -0.5208 
     27 CA         24.7409   -2.3212   -4.3038 C.3       3 UNK         0.0250 
     28 CB         25.5680   -3.5889   -4.0365 C.3       3 UNK        -0.1990 
     29 N          24.9298   -1.3908   -3.1892 N.am      3 UNK        -0.4232 
     30 C          24.1566   -0.3212   -2.9525 C.2       2 UNK         0.4993 
     31 O          23.1060   -0.0991   -3.5575 O.2       2 UNK        -0.5286 
     32 CA         24.6530    0.6882   -1.8952 C.3       2 UNK         0.0209 
     33 CB         23.4976    1.4217   -1.1796 C.3       2 UNK        -0.1931 
     34 N          25.6090    0.1256   -0.9298 N.am      2 UNK        -0.4546 
     35 C          25.3724   -0.8184   -0.0064 C.2       1 UNK         0.5154 
     36 O          24.2728   -1.3452    0.1835 O.2       1 UNK        -0.5181 
     37 C          29.3184   -1.7721   -7.6232 C.2       5 UNK         0.5014 
     38 O          30.4456   -1.5695   -8.0736 O.2       5 UNK        -0.5248 
     39 N          28.8050   -1.0975   -6.5858 N.am      6 UNK        -0.4434 
     40 CA         29.4571    0.0273   -5.9198 C.3       6 UNK         0.0363 
     41 CB         29.3450   -0.1540   -4.3974 C.3       6 UNK        -0.1936 
     42 C          28.8203    1.3586   -6.3401 C.2       6 UNK         0.5081 
     43 O          29.5424    2.3115   -6.6276 O.2       6 UNK        -0.5248 
     44 N          27.4827    1.4121   -6.3459 N.am      7 UNK        -0.4718 
     45 CA         26.6986    2.6323   -6.5328 C.3       7 UNK         0.0273 
     46 CB         25.2680    2.3933   -6.0222 C.3       7 UNK        -0.1935 
     47 C          26.6722    3.1556   -7.9767 C.2       7 UNK         0.5018 
     48 O          26.6418    4.3736   -8.1596 O.2       7 UNK        -0.5186 
     49 N          26.6553    2.2505   -8.9646 N.am      8 UNK        -0.4240 
     50 CA         26.5370    2.5904  -10.3841 C.3       8 UNK         0.0235 
     51 CB         25.3230    1.8672  -10.9947 C.3       8 UNK        -0.2000 
     52 C          27.8207    2.2525  -11.1493 C.2       8 UNK         0.4941 
     53 O          28.3279    3.1109  -11.8723 O.2       8 UNK        -0.5273 
     54 N          28.3222    1.0181  -10.9944 N.am      9 UNK        -0.4262 
     55 CA         29.4943    0.5265  -11.7302 C.3       9 UNK         0.0264 
     56 CB         29.5149   -1.0089  -11.7062 C.3       9 UNK        -0.1955 
     57 C          30.8312    1.0843  -11.2087 C.2       9 UNK         0.5031 
     58 O          31.7698    1.1979  -11.9987 O.2       9 UNK        -0.5390 
     59 N          30.8750    1.4166   -9.9090 N.am      10 UNK        -0.4204 
     60 CA         32.0194    1.8644   -9.1040 C.3       10 UNK         0.0237 
     61 CB         32.7094    3.1023   -9.7124 C.3       10 UNK        -0.1985 
     62 C          33.0311    0.7414   -8.8094 C.2       10 UNK         0.4970 
     63 O          33.2981   -0.1115   -9.6581 O.2       10 UNK        -0.4914 
     64 N          33.6016    0.7872   -7.5999 N.am      11 UNK        -0.4285 
     65 CA         34.6020   -0.1752   -7.1066 C.3       11 UNK         0.1007 
     66 C          36.0309    0.0148   -7.6957 C.2       11 UNK         0.5703 
     67 N          36.3219    1.0941   -8.4130 N.am      11 UNK        -0.7361 
     68 O          36.8917   -0.8408   -7.5037 O.2       11 UNK        -0.4986 
     69 C69        34.6395   -0.2129   -5.5555 C.3       12 UNK        -0.0947 
     70 S70        33.0276   -0.6679   -4.8352 S.3       12 UNK        -0.2240 
     71 C71        33.3044   -2.4244   -4.4609 C.3       12 UNK         0.0194 
     72 H72        25.4443   -1.9974    4.5980 H         1 UNK         0.0906 
     73 H73        26.1821   -0.5250    5.2310 H         1 UNK         0.0906 
     74 H74        24.5035   -0.5071    4.6839 H         1 UNK         0.0906 
     75 H75        26.0602   -2.4532    2.4928 H         1 UNK         0.3140 
     76 H76        27.3469   -0.4946    0.8004 H         1 UNK         0.1085 
     77 H77        27.9442   -2.9762    0.9257 H         1 UNK         0.0836 
     78 H78        26.4712   -3.3455    0.0708 H         1 UNK         0.0836 
     79 H79        30.2412   -2.8600   -0.4660 H         1 UNK         0.0731 
     80 H80        29.2575   -4.2818   -0.7398 H         1 UNK         0.0731 
     81 H81        31.8746   -2.2359   -2.1478 H         1 UNK         0.1312 
     82 H82        31.8545   -4.1683   -5.9795 H         1 UNK         0.1406 
     83 H83        28.7175   -4.9551   -3.1654 H         1 UNK         0.1631 
     84 H84        29.2651   -6.5457   -5.0689 H         1 UNK         0.0717 
     85 H85        30.3062   -6.0277   -6.3635 H         1 UNK         0.0717 
     86 H86        29.9413   -4.3681   -7.9796 H         1 UNK         0.0934 
     87 H87        28.5293   -4.9314   -8.8094 H         1 UNK         0.0934 
     88 H88        28.5949   -2.6906   -9.3874 H         1 UNK         0.0739 
     89 H89        26.5178   -3.3079   -7.5647 H         1 UNK         0.3093 
     90 H90        24.5926   -0.3801   -8.0157 H         1 UNK         0.0818 
     91 H91        22.8542   -1.9167   -8.8645 H         1 UNK         0.0819 
     92 H92        24.0688   -1.6544  -10.1030 H         1 UNK         0.0819 
     93 H93        24.0629   -3.1593   -9.1935 H         1 UNK         0.0819 
     94 H94        23.8176   -2.6960   -6.6892 H         1 UNK         0.3041 
     95 H95        23.6838   -2.5860   -4.3737 H         1 UNK         0.0784 
     96 H96        25.4125   -4.3319   -4.8196 H         1 UNK         0.0793 
     97 H97        26.6373   -3.3731   -4.0006 H         1 UNK         0.0793 
     98 H98        25.2899   -4.0531   -3.0900 H         1 UNK         0.0793 
     99 H99        25.7936   -1.4794   -2.6731 H         1 UNK         0.3024 
    100 H100       25.2091    1.4396   -2.4584 H         1 UNK         0.1171 
    101 H101       23.8734    2.1343   -0.4455 H         1 UNK         0.0786 
    102 H102       22.8903    1.9828   -1.8910 H         1 UNK         0.0786 
    103 H103       22.8322    0.7281   -0.6650 H         1 UNK         0.0786 
    104 H104       26.5559    0.4709   -1.0143 H         1 UNK         0.2977 
    105 H105       27.8538   -1.2937   -6.2887 H         1 UNK         0.3127 
    106 H106       30.5157    0.0638   -6.1826 H         1 UNK         0.0770 
    107 H107       28.3094   -0.1495   -4.0556 H         1 UNK         0.0814 
    108 H108       29.8711    0.6416   -3.8689 H         1 UNK         0.0814 
    109 H109       29.7875   -1.0979   -4.0861 H         1 UNK         0.0814 
    110 H110       26.9628    0.5773   -6.0753 H         1 UNK         0.2983 
    111 H111       27.1479    3.4137   -5.9155 H         1 UNK         0.0947 
    112 H112       24.6631    3.2964   -6.1140 H         1 UNK         0.0806 
    113 H113       25.2648    2.1073   -4.9707 H         1 UNK         0.0806 
    114 H114       24.7646    1.6048   -6.5820 H         1 UNK         0.0806 
    115 H115       26.7137    1.2620   -8.7394 H         1 UNK         0.3000 
    116 H116       26.3665    3.6623  -10.5067 H         1 UNK         0.0850 
    117 H117       25.2053    2.1276  -12.0474 H         1 UNK         0.0810 
    118 H118       24.4007    2.1495  -10.4869 H         1 UNK         0.0810 
    119 H119       25.4149    0.7826  -10.9380 H         1 UNK         0.0810 
    120 H120       27.8288    0.3580  -10.3959 H         1 UNK         0.3040 
    121 H121       29.3896    0.8394  -12.7716 H         1 UNK         0.0766 
    122 H122       29.8013   -1.3845  -10.7258 H         1 UNK         0.0812 
    123 H123       30.2458   -1.3937  -12.4185 H         1 UNK         0.0812 
    124 H124       28.5461   -1.4338  -11.9699 H         1 UNK         0.0812 
    125 H125       30.0303    1.2532   -9.3805 H         1 UNK         0.3205 
    126 H126       31.5922    2.1723   -8.1503 H         1 UNK         0.0754 
    127 H127       33.4366    3.5231   -9.0171 H         1 UNK         0.0769 
    128 H128       31.9877    3.8870   -9.9395 H         1 UNK         0.0769 
    129 H129       33.2459    2.8624  -10.6308 H         1 UNK         0.0769 
    130 H130       33.3436    1.5201   -6.9561 H         1 UNK         0.2981 
    131 H131       34.2853   -1.1656   -7.4402 H         1 UNK         0.0541 
    132 H132       35.6236    1.7990   -8.5831 H         1 UNK         0.3459 
    133 H133       37.2502    1.1995   -8.7909 H         1 UNK         0.3459 
    134 H134       34.9265    0.7625   -5.1592 H         1 UNK         0.0612 
    135 H135       35.3938   -0.9170   -5.1989 H         1 UNK         0.0612 
    136 H136       34.0126   -2.5106   -3.6356 H         1 UNK         0.0624 
    137 H137       33.7699   -2.9056   -5.3227 H         1 UNK         0.0624 
@<TRIPOS>BOND
     1    1    2 1    
     2    1   72 1    
     3    1   73 1    
     4    1   74 1    
     5    2    3 2    
     6    2    4 am   BACKBONE|DICT|INTERRES
     7    4    5 1    
     8    4   75 1    
     9    5    6 1    
    10    5   35 1    
    11    5   76 1    
    12    6    7 1    
    13    6   77 1    
    14    6   78 1    
    15    7    8 1    
    16    8    9 1    
    17    8   79 1    
    18    8   80 1    
    19    9   10 ar   
    20    9   14 ar   
    21   10   11 ar   
    22   10   81 1    
    23   11   12 ar   
    24   11   71 1    
    25   12   13 ar   
    26   12   82 1    
    27   13   14 ar   
    28   13   15 1    
    29   14   83 1    
    30   15   16 1    
    31   15   84 1    
    32   15   85 1    
    33   16   17 1    
    34   17   18 1    
    35   17   86 1    
    36   17   87 1    
    37   18   19 1    
    38   18   37 1    
    39   18   88 1    
    40   19   20 am   BACKBONE|DICT|INTERRES
    41   19   89 1    
    42   20   21 2    
    43   20   22 1    
    44   22   23 1    
    45   22   24 1    
    46   22   90 1    
    47   23   91 1    
    48   23   92 1    
    49   23   93 1    
    50   24   25 am   BACKBONE|DICT|INTERRES
    51   24   94 1    
    52   25   26 2    
    53   25   27 1    
    54   27   28 1    
    55   27   29 1    
    56   27   95 1    
    57   28   96 1    
    58   28   97 1    
    59   28   98 1    
    60   29   30 am   BACKBONE|DICT|INTERRES
    61   29   99 1    
    62   30   31 2    
    63   30   32 1    
    64   32   33 1    
    65   32   34 1    
    66   32  100 1    
    67   33  101 1    
    68   33  102 1    
    69   33  103 1    
    70   34   35 am   BACKBONE|DICT|INTERRES
    71   34  104 1    
    72   35   36 2    
    73   37   38 2    
    74   37   39 am   BACKBONE|DICT|INTERRES
    75   39   40 1    
    76   39  105 1    
    77   40   41 1    
    78   40   42 1    
    79   40  106 1    
    80   41  107 1    
    81   41  108 1    
    82   41  109 1    
    83   42   43 2    
    84   42   44 am   BACKBONE|DICT|INTERRES
    85   44   45 1    
    86   44  110 1    
    87   45   46 1    
    88   45   47 1    
    89   45  111 1    
    90   46  112 1    
    91   46  113 1    
    92   46  114 1    
    93   47   48 2    
    94   47   49 am   BACKBONE|DICT|INTERRES
    95   49   50 1    
    96   49  115 1    
    97   50   51 1    
    98   50   52 1    
    99   50  116 1    
   100   51  117 1    
   101   51  118 1    
   102   51  119 1    
   103   52   53 2    
   104   52   54 am   BACKBONE|DICT|INTERRES
   105   54   55 1    
   106   54  120 1    
   107   55   56 1    
   108   55   57 1    
   109   55  121 1    
   110   56  122 1    
   111   56  123 1    
   112   56  124 1    
   113   57   58 2    
   114   57   59 am   BACKBONE|DICT|INTERRES
   115   59   60 1    
   116   59  125 1    
   117   60   61 1    
   118   60   62 1    
   119   60  126 1    
   120   61  127 1    
   121   61  128 1    
   122   61  129 1    
   123   62   63 2    
   124   62   64 am   BACKBONE|DICT|INTERRES
   125   64   65 1    
   126   64  130 1    
   127   65   66 1    
   128   65   69 1    
   129   65  131 1    
   130   66   67 am   BACKBONE|DICT|INTERRES
   131   66   68 2    
   132   67  132 1    
   133   67  133 1    
   134   69   70 1    
   135   69  134 1    
   136   69  135 1    
   137   70   71 1    
   138   71  136 1    
   139   71  137 1    
@<TRIPOS>SUBSTRUCTURE
     1 UNK         1 GROUP             0       ****    0 ROOT    
