@<TRIPOS>MOLECULE
3R137
137   139    1
SMALL
USER_CHARGES


@<TRIPOS>ATOM
      1 CA         25.7692   -5.0818   -4.5218 C.3       0 UNK        -0.2020 
      2 C          26.0013   -3.9586   -3.5224 C.2       0 UNK         0.4855 
      3 O          25.4939   -2.8522   -3.7232 O.2       0 UNK        -0.5197 
      4 N          26.7667   -4.2404   -2.4579 N.am      1 UNK        -0.4892 
      5 CA         27.0868   -3.3338   -1.3470 C.3       1 UNK         0.0835 
      6 C6         27.9585   -4.0032   -0.2465 C.3       12 UNK        -0.0855 
      7 S7         29.3180   -5.0650   -0.8496 S.3       12 UNK        -0.2931 
      8 C8         30.6505   -3.8514   -1.1457 C.3       12 UNK         0.0378 
      9 C9         31.2964   -3.9959   -2.5211 C.ar      12 UNK        -0.0802 
     10 C10        32.6693   -3.7712   -2.6614 C.ar      12 UNK        -0.0944 
     11 C11        33.2840   -3.8717   -3.9126 C.ar      12 UNK        -0.0787 
     12 C12        32.5192   -4.2261   -5.0286 C.ar      12 UNK        -0.0862 
     13 C13        31.1443   -4.4421   -4.9073 C.ar      12 UNK        -0.0733 
     14 C14        30.5378   -4.3121   -3.6559 C.ar      12 UNK        -0.0832 
     15 C15        30.3203   -4.8255   -6.1268 C.3       12 UNK         0.0240 
     16 S16        29.8477   -3.3686   -7.1068 S.3       12 UNK        -0.2522 
     17 C17        28.4772   -2.6791   -6.1253 C.3       12 UNK        -0.0967 
     18 CA         27.5882   -1.7180   -6.9511 C.3       5 UNK         0.0660 
     19 N          26.1888   -1.7434   -6.5104 N.am      5 UNK        -0.4015 
     20 C          25.1696   -1.3477   -7.2865 C.2       4 UNK         0.4946 
     21 O          25.3094   -0.9441   -8.4406 O.2       4 UNK        -0.5353 
     22 CA         23.7629   -1.3676   -6.6667 C.3       4 UNK         0.0277 
     23 CB         23.1292   -2.7604   -6.8082 C.3       4 UNK        -0.1981 
     24 N          23.7345   -0.9575   -5.2607 N.am      4 UNK        -0.4209 
     25 C          24.1220    0.2386   -4.7989 C.2       3 UNK         0.4942 
     26 O          24.5790    1.1283   -5.5153 O.2       3 UNK        -0.5208 
     27 CA         24.0282    0.4739   -3.2878 C.3       3 UNK         0.0250 
     28 CB         22.9450   -0.3776   -2.5940 C.3       3 UNK        -0.1990 
     29 N          25.3278    0.1655   -2.7006 N.am      3 UNK        -0.4232 
     30 C          26.1239    1.0345   -2.0607 C.2       2 UNK         0.4993 
     31 O          25.8410    2.2214   -1.8922 O.2       2 UNK        -0.5286 
     32 CA         27.4432    0.4771   -1.4866 C.3       2 UNK         0.0209 
     33 CB         27.9494    1.2890   -0.2796 C.3       2 UNK        -0.1931 
     34 N          27.2647   -0.9181   -1.0820 N.am      2 UNK        -0.4546 
     35 C          27.6596   -1.9737   -1.8011 C.2       1 UNK         0.5154 
     36 O          28.3925   -1.8930   -2.7889 O.2       1 UNK        -0.5181 
     37 C          28.1519   -0.2783   -7.0099 C.2       5 UNK         0.5014 
     38 O          28.9690    0.0172   -7.8833 O.2       5 UNK        -0.5248 
     39 N          27.6717    0.6149   -6.1298 N.am      6 UNK        -0.4434 
     40 CA         27.9913    2.0452   -6.1754 C.3       6 UNK         0.0363 
     41 CB         27.6348    2.7235   -4.8459 C.3       6 UNK        -0.1936 
     42 C          27.3018    2.7472   -7.3551 C.2       6 UNK         0.5081 
     43 O          27.9325    3.5711   -8.0154 O.2       6 UNK        -0.5248 
     44 N          26.0469    2.3727   -7.6461 N.am      7 UNK        -0.4718 
     45 CA         25.2978    2.8141   -8.8293 C.3       7 UNK         0.0273 
     46 CB         23.8440    2.3264   -8.7329 C.3       7 UNK        -0.1935 
     47 C          25.9432    2.3617  -10.1535 C.2       7 UNK         0.5018 
     48 O          25.8778    3.0953  -11.1399 O.2       7 UNK        -0.5186 
     49 N          26.6035    1.1950  -10.1346 N.am      8 UNK        -0.4240 
     50 CA         27.4517    0.6780  -11.2131 C.3       8 UNK         0.0235 
     51 CB         27.5880   -0.8465  -11.0544 C.3       8 UNK        -0.2000 
     52 C          28.8410    1.3503  -11.2953 C.2       8 UNK         0.4941 
     53 O          29.6260    0.9717  -12.1658 O.2       8 UNK        -0.5273 
     54 N          29.1247    2.3223  -10.4130 N.am      9 UNK        -0.4262 
     55 CA         30.3543    3.1163  -10.3090 C.3       9 UNK         0.0264 
     56 CB         30.5992    3.9444  -11.5898 C.3       9 UNK        -0.1955 
     57 C          31.5846    2.3025   -9.8649 C.2       9 UNK         0.5031 
     58 O          32.7042    2.6250  -10.2696 O.2       9 UNK        -0.5390 
     59 N          31.3669    1.2859   -9.0224 N.am      10 UNK        -0.4204 
     60 CA         32.4080    0.4889   -8.3765 C.3       10 UNK         0.0237 
     61 CB         32.2091   -0.9845   -8.7742 C.3       10 UNK        -0.1985 
     62 C          32.3672    0.7091   -6.8528 C.2       10 UNK         0.4970 
     63 O          31.6650    1.5998   -6.3696 O.2       10 UNK        -0.4914 
     64 N          33.1599   -0.0837   -6.1251 N.am      11 UNK        -0.4285 
     65 CA         33.3323   -0.0448   -4.6627 C.3       11 UNK         0.1007 
     66 C          32.0977   -0.4536   -3.8028 C.2       11 UNK         0.5703 
     67 N          31.0083   -0.9409   -4.3789 N.am      11 UNK        -0.7361 
     68 O          32.1241   -0.2936   -2.5847 O.2       11 UNK        -0.4986 
     69 C69        34.6506   -0.7524   -4.2165 C.3       12 UNK        -0.0947 
     70 S70        35.1249   -2.2283   -5.1921 S.3       12 UNK        -0.2240 
     71 C71        34.7753   -3.6085   -4.0574 C.3       12 UNK         0.0194 
     72 H72        25.8437   -4.7107   -5.5430 H         1 UNK         0.0906 
     73 H73        24.7711   -5.4973   -4.3872 H         1 UNK         0.0906 
     74 H74        26.4941   -5.8867   -4.4021 H         1 UNK         0.0906 
     75 H75        27.1801   -5.1585   -2.3749 H         1 UNK         0.3140 
     76 H76        26.1204   -3.1122   -0.8881 H         1 UNK         0.1085 
     77 H77        27.3153   -4.6477    0.3549 H         1 UNK         0.0836 
     78 H78        28.3534   -3.2692    0.4594 H         1 UNK         0.0836 
     79 H79        30.2812   -2.8314   -1.0457 H         1 UNK         0.0731 
     80 H80        31.3986   -3.9795   -0.3618 H         1 UNK         0.0731 
     81 H81        33.2588   -3.5015   -1.7957 H         1 UNK         0.1312 
     82 H82        32.9925   -4.3150   -5.9969 H         1 UNK         0.1406 
     83 H83        29.4703   -4.4537   -3.5670 H         1 UNK         0.1631 
     84 H84        29.4299   -5.3846   -5.8354 H         1 UNK         0.0717 
     85 H85        30.9029   -5.4960   -6.7602 H         1 UNK         0.0717 
     86 H86        27.8876   -3.5248   -5.7765 H         1 UNK         0.0934 
     87 H87        28.8643   -2.2014   -5.2291 H         1 UNK         0.0934 
     88 H88        27.5850   -2.0863   -7.9796 H         1 UNK         0.0739 
     89 H89        25.9939   -2.0564   -5.5648 H         1 UNK         0.3093 
     90 H90        23.1510   -0.6571   -7.2261 H         1 UNK         0.0818 
     91 H91        23.1353   -3.0884   -7.8488 H         1 UNK         0.0819 
     92 H92        23.6648   -3.5107   -6.2258 H         1 UNK         0.0819 
     93 H93        22.0903   -2.7585   -6.4778 H         1 UNK         0.0819 
     94 H94        23.4408   -1.6544   -4.5905 H         1 UNK         0.3041 
     95 H95        23.7742    1.5266   -3.1467 H         1 UNK         0.0784 
     96 H96        21.9722   -0.2427   -3.0694 H         1 UNK         0.0793 
     97 H97        23.1803   -1.4427   -2.6066 H         1 UNK         0.0793 
     98 H98        22.8331   -0.0829   -1.5504 H         1 UNK         0.0793 
     99 H99        25.6479   -0.7875   -2.8277 H         1 UNK         0.3024 
    100 H100       28.1928    0.5512   -2.2779 H         1 UNK         0.1171 
    101 H101       28.1557    2.3227   -0.5606 H         1 UNK         0.0786 
    102 H102       27.2186    1.3089    0.5297 H         1 UNK         0.0786 
    103 H103       28.8767    0.8730    0.1147 H         1 UNK         0.0786 
    104 H104       26.6639   -1.0681   -0.2829 H         1 UNK         0.2977 
    105 H105       26.9562    0.3272   -5.4793 H         1 UNK         0.3127 
    106 H106       29.0687    2.1480   -6.3183 H         1 UNK         0.0770 
    107 H107       26.5707    2.6499   -4.6216 H         1 UNK         0.0814 
    108 H108       27.8853    3.7847   -4.8743 H         1 UNK         0.0814 
    109 H109       28.1919    2.2864   -4.0184 H         1 UNK         0.0814 
    110 H110       25.5644    1.7493   -7.0024 H         1 UNK         0.2983 
    111 H111       25.2920    3.9062   -8.8256 H         1 UNK         0.0947 
    112 H112       23.7802    1.2388   -8.7529 H         1 UNK         0.0806 
    113 H113       23.2515    2.7021   -9.5682 H         1 UNK         0.0806 
    114 H114       23.3686    2.6727   -7.8150 H         1 UNK         0.0806 
    115 H115       26.5309    0.6218   -9.3016 H         1 UNK         0.3000 
    116 H116       26.9486    0.8731  -12.1624 H         1 UNK         0.0850 
    117 H117       28.1126   -1.2831  -11.9051 H         1 UNK         0.0810 
    118 H118       26.6129   -1.3304  -10.9932 H         1 UNK         0.0810 
    119 H119       28.1506   -1.1098  -10.1591 H         1 UNK         0.0810 
    120 H120       28.4250    2.5516   -9.7150 H         1 UNK         0.3040 
    121 H121       30.1750    3.8276   -9.5018 H         1 UNK         0.0766 
    122 H122       30.8700    3.3131  -12.4364 H         1 UNK         0.0812 
    123 H123       31.4126    4.6563  -11.4450 H         1 UNK         0.0812 
    124 H124       29.7147    4.5181  -11.8666 H         1 UNK         0.0812 
    125 H125       30.4209    1.0903   -8.7026 H         1 UNK         0.3205 
    126 H126       33.3988    0.8024   -8.7108 H         1 UNK         0.0754 
    127 H127       32.9502   -1.6420   -8.3192 H         1 UNK         0.0769 
    128 H128       32.2927   -1.1099   -9.8539 H         1 UNK         0.0769 
    129 H129       31.2233   -1.3404   -8.4824 H         1 UNK         0.0769 
    130 H130       33.7003   -0.7984   -6.5902 H         1 UNK         0.2981 
    131 H131       33.4643    1.0108   -4.4176 H         1 UNK         0.0541 
    132 H132       30.2310   -1.2217   -3.7957 H         1 UNK         0.3459 
    133 H133       30.9843   -1.0926   -5.3730 H         1 UNK         0.3459 
    134 H134       34.6405   -1.0019   -3.1539 H         1 UNK         0.0612 
    135 H135       35.4735   -0.0448   -4.3281 H         1 UNK         0.0612 
    136 H136       35.2526   -4.5086   -4.4467 H         1 UNK         0.0624 
    137 H137       35.2400   -3.4078   -3.0909 H         1 UNK         0.0624 
@<TRIPOS>BOND
     1    1    2 1    
     2    1   72 1    
     3    1   73 1    
     4    1   74 1    
     5    2    3 2    
     6    2    4 am   BACKBONE|DICT|INTERRES
     7    4    5 1    
     8    4   75 1    
     9    5    6 1    
    10    5   35 1    
    11    5   76 1    
    12    6    7 1    
    13    6   77 1    
    14    6   78 1    
    15    7    8 1    
    16    8    9 1    
    17    8   79 1    
    18    8   80 1    
    19    9   10 ar   
    20    9   14 ar   
    21   10   11 ar   
    22   10   81 1    
    23   11   12 ar   
    24   11   71 1    
    25   12   13 ar   
    26   12   82 1    
    27   13   14 ar   
    28   13   15 1    
    29   14   83 1    
    30   15   16 1    
    31   15   84 1    
    32   15   85 1    
    33   16   17 1    
    34   17   18 1    
    35   17   86 1    
    36   17   87 1    
    37   18   19 1    
    38   18   37 1    
    39   18   88 1    
    40   19   20 am   BACKBONE|DICT|INTERRES
    41   19   89 1    
    42   20   21 2    
    43   20   22 1    
    44   22   23 1    
    45   22   24 1    
    46   22   90 1    
    47   23   91 1    
    48   23   92 1    
    49   23   93 1    
    50   24   25 am   BACKBONE|DICT|INTERRES
    51   24   94 1    
    52   25   26 2    
    53   25   27 1    
    54   27   28 1    
    55   27   29 1    
    56   27   95 1    
    57   28   96 1    
    58   28   97 1    
    59   28   98 1    
    60   29   30 am   BACKBONE|DICT|INTERRES
    61   29   99 1    
    62   30   31 2    
    63   30   32 1    
    64   32   33 1    
    65   32   34 1    
    66   32  100 1    
    67   33  101 1    
    68   33  102 1    
    69   33  103 1    
    70   34   35 am   BACKBONE|DICT|INTERRES
    71   34  104 1    
    72   35   36 2    
    73   37   38 2    
    74   37   39 am   BACKBONE|DICT|INTERRES
    75   39   40 1    
    76   39  105 1    
    77   40   41 1    
    78   40   42 1    
    79   40  106 1    
    80   41  107 1    
    81   41  108 1    
    82   41  109 1    
    83   42   43 2    
    84   42   44 am   BACKBONE|DICT|INTERRES
    85   44   45 1    
    86   44  110 1    
    87   45   46 1    
    88   45   47 1    
    89   45  111 1    
    90   46  112 1    
    91   46  113 1    
    92   46  114 1    
    93   47   48 2    
    94   47   49 am   BACKBONE|DICT|INTERRES
    95   49   50 1    
    96   49  115 1    
    97   50   51 1    
    98   50   52 1    
    99   50  116 1    
   100   51  117 1    
   101   51  118 1    
   102   51  119 1    
   103   52   53 2    
   104   52   54 am   BACKBONE|DICT|INTERRES
   105   54   55 1    
   106   54  120 1    
   107   55   56 1    
   108   55   57 1    
   109   55  121 1    
   110   56  122 1    
   111   56  123 1    
   112   56  124 1    
   113   57   58 2    
   114   57   59 am   BACKBONE|DICT|INTERRES
   115   59   60 1    
   116   59  125 1    
   117   60   61 1    
   118   60   62 1    
   119   60  126 1    
   120   61  127 1    
   121   61  128 1    
   122   61  129 1    
   123   62   63 2    
   124   62   64 am   BACKBONE|DICT|INTERRES
   125   64   65 1    
   126   64  130 1    
   127   65   66 1    
   128   65   69 1    
   129   65  131 1    
   130   66   67 am   BACKBONE|DICT|INTERRES
   131   66   68 2    
   132   67  132 1    
   133   67  133 1    
   134   69   70 1    
   135   69  134 1    
   136   69  135 1    
   137   70   71 1    
   138   71  136 1    
   139   71  137 1    
@<TRIPOS>SUBSTRUCTURE
     1 UNK         1 GROUP             0       ****    0 ROOT    
