@<TRIPOS>MOLECULE
3R137
137   139    1
SMALL
USER_CHARGES


@<TRIPOS>ATOM
      1 CA         27.3061   -2.2239    0.1916 C.3       0 UNK        -0.2020 
      2 C          26.9332   -2.3731   -1.2754 C.2       0 UNK         0.4855 
      3 O          26.6594   -1.3749   -1.9398 O.2       0 UNK        -0.5197 
      4 N          26.9348   -3.6102   -1.7879 N.am      1 UNK        -0.4892 
      5 CA         26.5979   -3.9396   -3.1778 C.3       1 UNK         0.0835 
      6 C6         27.0716   -5.3640   -3.5738 C.3       12 UNK        -0.0855 
      7 S7         28.8520   -5.6457   -3.2816 S.3       12 UNK        -0.2931 
      8 C8         29.6029   -4.7506   -4.6852 C.3       12 UNK         0.0378 
      9 C9         30.7462   -3.8357   -4.2575 C.ar      12 UNK        -0.0802 
     10 C10        31.9315   -3.8027   -5.0014 C.ar      12 UNK        -0.0944 
     11 C11        32.9761   -2.9467   -4.6377 C.ar      12 UNK        -0.0787 
     12 C12        32.8386   -2.1368   -3.5085 C.ar      12 UNK        -0.0862 
     13 C13        31.6550   -2.1424   -2.7687 C.ar      12 UNK        -0.0733 
     14 C14        30.6127   -2.9922   -3.1475 C.ar      12 UNK        -0.0832 
     15 C15        31.5091   -1.2163   -1.5697 C.3       12 UNK         0.0240 
     16 S16        30.1575   -0.0092   -1.7611 S.3       12 UNK        -0.2522 
     17 C17        30.4672    0.7286   -3.4076 C.3       12 UNK        -0.0967 
     18 CA         29.2873    0.4760   -4.3815 C.3       5 UNK         0.0660 
     19 N          28.0264    0.9647   -3.8028 N.am      5 UNK        -0.4015 
     20 C          26.8161    0.9256   -4.3691 C.2       4 UNK         0.4946 
     21 O          26.6058    0.5236   -5.5127 O.2       4 UNK        -0.5353 
     22 CA         25.6595    1.5053   -3.5538 C.3       4 UNK         0.0277 
     23 CB         25.5473    3.0237   -3.7915 C.3       4 UNK        -0.1981 
     24 N          24.4221    0.8405   -3.9508 N.am      4 UNK        -0.4209 
     25 C          23.2934    0.8062   -3.2360 C.2       3 UNK         0.4942 
     26 O          23.1585    1.3655   -2.1466 O.2       3 UNK        -0.5208 
     27 CA         22.1052    0.0170   -3.8162 C.3       3 UNK         0.0250 
     28 CB         21.4413    0.7751   -4.9844 C.3       3 UNK        -0.1990 
     29 N          22.4214   -1.3756   -4.1665 N.am      3 UNK        -0.4232 
     30 C          23.2064   -1.8260   -5.1537 C.2       2 UNK         0.4993 
     31 O          23.7964   -1.1002   -5.9554 O.2       2 UNK        -0.5286 
     32 CA         23.4039   -3.3469   -5.2348 C.3       2 UNK         0.0209 
     33 CB         23.2490   -3.8564   -6.6788 C.3       2 UNK        -0.1931 
     34 N          24.7423   -3.6782   -4.7530 N.am      2 UNK        -0.4546 
     35 C          25.0892   -3.7622   -3.4630 C.2       1 UNK         0.5154 
     36 O          24.2718   -3.7275   -2.5385 O.2       1 UNK        -0.5181 
     37 C          29.5867    1.0738   -5.7758 C.2       5 UNK         0.5014 
     38 O          30.0063    0.3534   -6.6882 O.2       5 UNK        -0.5248 
     39 N          29.3159    2.3792   -5.9182 N.am      6 UNK        -0.4434 
     40 CA         29.4674    3.1403   -7.1575 C.3       6 UNK         0.0363 
     41 CB         29.4625    4.6417   -6.8313 C.3       6 UNK        -0.1936 
     42 C          28.3970    2.8176   -8.2158 C.2       6 UNK         0.5081 
     43 O          28.6604    3.0031   -9.4028 O.2       6 UNK        -0.5248 
     44 N          27.2195    2.3438   -7.7893 N.am      7 UNK        -0.4718 
     45 CA         26.1475    1.9007   -8.6833 C.3       7 UNK         0.0273 
     46 CB         24.7854    2.0972   -7.9948 C.3       7 UNK        -0.1935 
     47 C          26.3455    0.4333   -9.0909 C.2       7 UNK         0.5018 
     48 O          26.1334    0.0908  -10.2544 O.2       7 UNK        -0.5186 
     49 N          26.7470   -0.3961   -8.1198 N.am      8 UNK        -0.4240 
     50 CA         26.9334   -1.8371   -8.2464 C.3       8 UNK         0.0235 
     51 CB         27.1454   -2.4340   -6.8467 C.3       8 UNK        -0.2000 
     52 C          28.0954   -2.2265   -9.1674 C.2       8 UNK         0.4941 
     53 O          27.9023   -3.0611  -10.0528 O.2       8 UNK        -0.5273 
     54 N          29.2808   -1.6543   -8.9161 N.am      9 UNK        -0.4262 
     55 CA         30.5334   -2.0931   -9.5394 C.3       9 UNK         0.0264 
     56 CB         31.2305   -3.0783   -8.5827 C.3       9 UNK        -0.1955 
     57 C          31.4625   -0.9367   -9.9404 C.2       9 UNK         0.5031 
     58 O          32.5863   -1.2061  -10.3671 O.2       9 UNK        -0.5390 
     59 N          31.0026    0.3170   -9.7986 N.am      10 UNK        -0.4204 
     60 CA         31.7605    1.5594  -10.0220 C.3       10 UNK         0.0237 
     61 CB         32.1588    1.7148  -11.5062 C.3       10 UNK        -0.1985 
     62 C          32.9545    1.7338   -9.0591 C.2       10 UNK         0.4970 
     63 O          33.9029    2.4490   -9.3873 O.2       10 UNK        -0.4914 
     64 N          32.8882    1.0846   -7.8909 N.am      11 UNK        -0.4285 
     65 CA         33.9171    1.1282   -6.8477 C.3       11 UNK         0.1007 
     66 C          33.8159    2.4310   -6.0126 C.2       11 UNK         0.5703 
     67 N          34.9439    3.0144   -5.6318 N.am      11 UNK        -0.7361 
     68 O          32.7283    2.8917   -5.6715 O.2       11 UNK        -0.4986 
     69 C69        33.8343   -0.1178   -5.9340 C.3       12 UNK        -0.0947 
     70 S70        34.1284   -1.6801   -6.8292 S.3       12 UNK        -0.2240 
     71 C71        34.2538   -2.8805   -5.4632 C.3       12 UNK         0.0194 
     72 H72        28.1833   -1.5849    0.2903 H         1 UNK         0.0906 
     73 H73        26.4855   -1.7641    0.7414 H         1 UNK         0.0906 
     74 H74        27.5314   -3.1838    0.6558 H         1 UNK         0.0906 
     75 H75        27.1526   -4.3986   -1.1956 H         1 UNK         0.3140 
     76 H76        27.1214   -3.2169   -3.8076 H         1 UNK         0.1085 
     77 H77        26.5198   -6.1158   -3.0057 H         1 UNK         0.0836 
     78 H78        26.8612   -5.5712   -4.6249 H         1 UNK         0.0836 
     79 H79        29.9486   -5.4857   -5.4138 H         1 UNK         0.0731 
     80 H80        28.8562   -4.1444   -5.1949 H         1 UNK         0.0731 
     81 H81        32.0393   -4.4323   -5.8741 H         1 UNK         0.1312 
     82 H82        33.6477   -1.4786   -3.2229 H         1 UNK         0.1406 
     83 H83        29.6938   -2.9897   -2.5778 H         1 UNK         0.1631 
     84 H84        32.4358   -0.6709   -1.3845 H         1 UNK         0.0717 
     85 H85        31.3227   -1.8150   -0.6772 H         1 UNK         0.0717 
     86 H86        31.3979    0.3404   -3.8182 H         1 UNK         0.0934 
     87 H87        30.6324    1.7992   -3.2706 H         1 UNK         0.0934 
     88 H88        29.1777   -0.6022   -4.5156 H         1 UNK         0.0739 
     89 H89        28.0944    1.2796   -2.8456 H         1 UNK         0.3093 
     90 H90        25.8435    1.3058   -2.4957 H         1 UNK         0.0818 
     91 H91        24.7491    3.4634   -3.1934 H         1 UNK         0.0819 
     92 H92        26.4707    3.5356   -3.5183 H         1 UNK         0.0819 
     93 H93        25.3428    3.2513   -4.8386 H         1 UNK         0.0819 
     94 H94        24.4718    0.3059   -4.8180 H         1 UNK         0.3041 
     95 H95        21.3625   -0.0509   -3.0195 H         1 UNK         0.0784 
     96 H96        21.1142    1.7657   -4.6657 H         1 UNK         0.0793 
     97 H97        22.1214    0.9176   -5.8247 H         1 UNK         0.0793 
     98 H98        20.5619    0.2460   -5.3514 H         1 UNK         0.0793 
     99 H99        22.0431   -2.0624   -3.5278 H         1 UNK         0.3024 
    100 H100       22.6558   -3.8472   -4.6150 H         1 UNK         0.1171 
    101 H101       23.9821   -3.4088   -7.3513 H         1 UNK         0.0786 
    102 H102       22.2599   -3.6159   -7.0709 H         1 UNK         0.0786 
    103 H103       23.3638   -4.9392   -6.7316 H         1 UNK         0.0786 
    104 H104       25.4632   -3.7097   -5.4573 H         1 UNK         0.2977 
    105 H105       28.9747    2.8867   -5.1153 H         1 UNK         0.3127 
    106 H106       30.4416    2.8932   -7.5813 H         1 UNK         0.0770 
    107 H107       28.5211    4.9555   -6.3787 H         1 UNK         0.0814 
    108 H108       29.6047    5.2370   -7.7344 H         1 UNK         0.0814 
    109 H109       30.2706    4.8994   -6.1461 H         1 UNK         0.0814 
    110 H110       27.0982    2.1400   -6.8052 H         1 UNK         0.2983 
    111 H111       26.1552    2.5072   -9.5920 H         1 UNK         0.0947 
    112 H112       23.9702    1.8101   -8.6602 H         1 UNK         0.0806 
    113 H113       24.6270    3.1395   -7.7183 H         1 UNK         0.0806 
    114 H114       24.6907    1.4929   -7.0918 H         1 UNK         0.0806 
    115 H115       26.8104   -0.0200   -7.1737 H         1 UNK         0.3000 
    116 H116       26.0131   -2.2519   -8.6629 H         1 UNK         0.0850 
    117 H117       27.1608   -3.5236   -6.8864 H         1 UNK         0.0810 
    118 H118       26.3459   -2.1266   -6.1760 H         1 UNK         0.0810 
    119 H119       28.0840   -2.1015   -6.4010 H         1 UNK         0.0810 
    120 H120       29.3599   -0.9994   -8.1429 H         1 UNK         0.3040 
    121 H121       30.3229   -2.6204  -10.4721 H         1 UNK         0.0766 
    122 H122       32.1871   -3.4188   -8.9810 H         1 UNK         0.0812 
    123 H123       31.4229   -2.6143   -7.6154 H         1 UNK         0.0812 
    124 H124       30.6194   -3.9644   -8.4113 H         1 UNK         0.0812 
    125 H125       30.0573    0.4374   -9.4634 H         1 UNK         0.3205 
    126 H126       31.0843    2.3804   -9.7949 H         1 UNK         0.0754 
    127 H127       32.5693    2.7067  -11.6990 H         1 UNK         0.0769 
    128 H128       31.2974    1.5907  -12.1624 H         1 UNK         0.0769 
    129 H129       32.9161    0.9891  -11.8039 H         1 UNK         0.0769 
    130 H130       32.0507    0.5650   -7.6634 H         1 UNK         0.2981 
    131 H131       34.8936    1.1159   -7.3366 H         1 UNK         0.0541 
    132 H132       34.8953    3.8532   -5.0751 H         1 UNK         0.3459 
    133 H133       35.8419    2.6395   -5.8955 H         1 UNK         0.3459 
    134 H134       32.8483   -0.1719   -5.4739 H         1 UNK         0.0612 
    135 H135       34.5624   -0.0485   -5.1237 H         1 UNK         0.0612 
    136 H136       34.4762   -3.8639   -5.8796 H         1 UNK         0.0624 
    137 H137       35.1031   -2.6178   -4.8307 H         1 UNK         0.0624 
@<TRIPOS>BOND
     1    1    2 1    
     2    1   72 1    
     3    1   73 1    
     4    1   74 1    
     5    2    3 2    
     6    2    4 am   BACKBONE|DICT|INTERRES
     7    4    5 1    
     8    4   75 1    
     9    5    6 1    
    10    5   35 1    
    11    5   76 1    
    12    6    7 1    
    13    6   77 1    
    14    6   78 1    
    15    7    8 1    
    16    8    9 1    
    17    8   79 1    
    18    8   80 1    
    19    9   10 ar   
    20    9   14 ar   
    21   10   11 ar   
    22   10   81 1    
    23   11   12 ar   
    24   11   71 1    
    25   12   13 ar   
    26   12   82 1    
    27   13   14 ar   
    28   13   15 1    
    29   14   83 1    
    30   15   16 1    
    31   15   84 1    
    32   15   85 1    
    33   16   17 1    
    34   17   18 1    
    35   17   86 1    
    36   17   87 1    
    37   18   19 1    
    38   18   37 1    
    39   18   88 1    
    40   19   20 am   BACKBONE|DICT|INTERRES
    41   19   89 1    
    42   20   21 2    
    43   20   22 1    
    44   22   23 1    
    45   22   24 1    
    46   22   90 1    
    47   23   91 1    
    48   23   92 1    
    49   23   93 1    
    50   24   25 am   BACKBONE|DICT|INTERRES
    51   24   94 1    
    52   25   26 2    
    53   25   27 1    
    54   27   28 1    
    55   27   29 1    
    56   27   95 1    
    57   28   96 1    
    58   28   97 1    
    59   28   98 1    
    60   29   30 am   BACKBONE|DICT|INTERRES
    61   29   99 1    
    62   30   31 2    
    63   30   32 1    
    64   32   33 1    
    65   32   34 1    
    66   32  100 1    
    67   33  101 1    
    68   33  102 1    
    69   33  103 1    
    70   34   35 am   BACKBONE|DICT|INTERRES
    71   34  104 1    
    72   35   36 2    
    73   37   38 2    
    74   37   39 am   BACKBONE|DICT|INTERRES
    75   39   40 1    
    76   39  105 1    
    77   40   41 1    
    78   40   42 1    
    79   40  106 1    
    80   41  107 1    
    81   41  108 1    
    82   41  109 1    
    83   42   43 2    
    84   42   44 am   BACKBONE|DICT|INTERRES
    85   44   45 1    
    86   44  110 1    
    87   45   46 1    
    88   45   47 1    
    89   45  111 1    
    90   46  112 1    
    91   46  113 1    
    92   46  114 1    
    93   47   48 2    
    94   47   49 am   BACKBONE|DICT|INTERRES
    95   49   50 1    
    96   49  115 1    
    97   50   51 1    
    98   50   52 1    
    99   50  116 1    
   100   51  117 1    
   101   51  118 1    
   102   51  119 1    
   103   52   53 2    
   104   52   54 am   BACKBONE|DICT|INTERRES
   105   54   55 1    
   106   54  120 1    
   107   55   56 1    
   108   55   57 1    
   109   55  121 1    
   110   56  122 1    
   111   56  123 1    
   112   56  124 1    
   113   57   58 2    
   114   57   59 am   BACKBONE|DICT|INTERRES
   115   59   60 1    
   116   59  125 1    
   117   60   61 1    
   118   60   62 1    
   119   60  126 1    
   120   61  127 1    
   121   61  128 1    
   122   61  129 1    
   123   62   63 2    
   124   62   64 am   BACKBONE|DICT|INTERRES
   125   64   65 1    
   126   64  130 1    
   127   65   66 1    
   128   65   69 1    
   129   65  131 1    
   130   66   67 am   BACKBONE|DICT|INTERRES
   131   66   68 2    
   132   67  132 1    
   133   67  133 1    
   134   69   70 1    
   135   69  134 1    
   136   69  135 1    
   137   70   71 1    
   138   71  136 1    
   139   71  137 1    
@<TRIPOS>SUBSTRUCTURE
     1 UNK         1 GROUP             0       ****    0 ROOT    
