@<TRIPOS>MOLECULE
3R137
137   139    1
SMALL
USER_CHARGES


@<TRIPOS>ATOM
      1 CA         24.4781   -3.2515    1.0561 C.3       0 UNK        -0.2020 
      2 C          25.6353   -2.5072    0.4078 C.2       0 UNK         0.4855 
      3 O          26.1528   -1.5512    0.9877 O.2       0 UNK        -0.5197 
      4 N          26.0468   -2.9323   -0.7933 N.am      1 UNK        -0.4892 
      5 CA         27.1361   -2.3413   -1.5803 C.3       1 UNK         0.0835 
      6 C6         27.7394   -3.3613   -2.5771 C.3       12 UNK        -0.0855 
      7 S7         28.5343   -4.7627   -1.7221 S.3       12 UNK        -0.2931 
      8 C8         30.2997   -4.2858   -1.7881 C.3       12 UNK         0.0378 
      9 C9         30.8739   -4.1970   -3.2019 C.ar      12 UNK        -0.0802 
     10 C10        31.8203   -3.2127   -3.5080 C.ar      12 UNK        -0.0944 
     11 C11        32.3628   -3.1125   -4.7943 C.ar      12 UNK        -0.0787 
     12 C12        31.9408   -4.0099   -5.7837 C.ar      12 UNK        -0.0862 
     13 C13        30.9889   -4.9911   -5.4957 C.ar      12 UNK        -0.0733 
     14 C14        30.4822   -5.0959   -4.1988 C.ar      12 UNK        -0.0832 
     15 C15        30.5012   -5.9419   -6.5802 C.3       12 UNK         0.0240 
     16 S16        29.3559   -5.1413   -7.7531 S.3       12 UNK        -0.2522 
     17 C17        27.9909   -4.5655   -6.6779 C.3       12 UNK        -0.0967 
     18 CA         27.4434   -3.1705   -7.0731 C.3       5 UNK         0.0660 
     19 N          26.1678   -2.8914   -6.4032 N.am      5 UNK        -0.4015 
     20 C          25.4147   -1.7956   -6.5695 C.2       4 UNK         0.4946 
     21 O          25.7569   -0.8324   -7.2590 O.2       4 UNK        -0.5353 
     22 CA         24.0587   -1.7467   -5.8498 C.3       4 UNK         0.0277 
     23 CB         23.8375   -2.8643   -4.8078 C.3       4 UNK        -0.1981 
     24 N          23.9513   -0.4471   -5.1996 N.am      4 UNK        -0.4209 
     25 C          22.8784    0.3533   -5.1971 C.2       3 UNK         0.4942 
     26 O          21.8085    0.0589   -5.7332 O.2       3 UNK        -0.5208 
     27 CA         23.0267    1.7270   -4.5025 C.3       3 UNK         0.0250 
     28 CB         21.7369    2.1634   -3.7745 C.3       3 UNK        -0.1990 
     29 N          24.1988    1.8257   -3.6176 N.am      3 UNK        -0.4232 
     30 C          24.4339    1.1120   -2.5071 C.2       2 UNK         0.4993 
     31 O          23.6259    0.3383   -1.9882 O.2       2 UNK        -0.5286 
     32 CA         25.8321    1.2707   -1.8906 C.3       2 UNK         0.0209 
     33 CB         25.7905    2.2225   -0.6846 C.3       2 UNK        -0.1931 
     34 N          26.3697   -0.0221   -1.4673 N.am      2 UNK        -0.4546 
     35 C          26.6654   -1.0472   -2.2772 C.2       1 UNK         0.5154 
     36 O          26.5770   -0.9977   -3.5088 O.2       1 UNK        -0.5181 
     37 C          28.4973   -2.0489   -6.9189 C.2       5 UNK         0.5014 
     38 O          29.1562   -1.7188   -7.9062 O.2       5 UNK        -0.5248 
     39 N          28.6033   -1.4358   -5.7280 N.am      6 UNK        -0.4434 
     40 CA         29.5713   -0.3624   -5.4725 C.3       6 UNK         0.0363 
     41 CB         29.7199   -0.1076   -3.9651 C.3       6 UNK        -0.1936 
     42 C          29.2292    0.9430   -6.2070 C.2       6 UNK         0.5081 
     43 O          30.1418    1.6957   -6.5472 O.2       6 UNK        -0.5248 
     44 N          27.9344    1.1827   -6.4535 N.am      7 UNK        -0.4718 
     45 CA         27.4526    2.3032   -7.2591 C.3       7 UNK         0.0273 
     46 CB         26.0065    2.6465   -6.8670 C.3       7 UNK        -0.1935 
     47 C          27.5593    1.9910   -8.7582 C.2       7 UNK         0.5018 
     48 O          28.0069    2.8483   -9.5187 O.2       7 UNK        -0.5186 
     49 N          27.1716    0.7678   -9.1495 N.am      8 UNK        -0.4240 
     50 CA         27.1877    0.2804  -10.5312 C.3       8 UNK         0.0235 
     51 CB         26.4939   -1.0889  -10.6054 C.3       8 UNK        -0.2000 
     52 C          28.5990    0.2100  -11.1366 C.2       8 UNK         0.4941 
     53 O          28.7951    0.6757  -12.2598 O.2       8 UNK        -0.5273 
     54 N          29.5573   -0.3460  -10.3821 N.am      9 UNK        -0.4262 
     55 CA         30.9693   -0.4183  -10.7716 C.3       9 UNK         0.0264 
     56 CB         31.6081   -1.6512  -10.1122 C.3       9 UNK        -0.1955 
     57 C          31.7567    0.8614  -10.4292 C.2       9 UNK         0.5031 
     58 O          32.9038    0.9849  -10.8601 O.2       9 UNK        -0.5390 
     59 N          31.1444    1.7760   -9.6603 N.am      10 UNK        -0.4204 
     60 CA         31.6726    3.0627   -9.1830 C.3       10 UNK         0.0237 
     61 CB         31.9494    4.0174  -10.3638 C.3       10 UNK        -0.1985 
     62 C          32.8745    2.9456   -8.2207 C.2       10 UNK         0.4970 
     63 O          33.5827    3.9324   -8.0118 O.2       10 UNK        -0.4914 
     64 N          33.0752    1.7583   -7.6393 N.am      11 UNK        -0.4285 
     65 CA         34.0948    1.4596   -6.6249 C.3       11 UNK         0.1007 
     66 C          33.7081    1.8870   -5.1800 C.2       11 UNK         0.5703 
     67 N          32.4668    2.2687   -4.9042 N.am      11 UNK        -0.7361 
     68 O          34.5609    1.8927   -4.2954 O.2       11 UNK        -0.4986 
     69 C69        34.5566   -0.0206   -6.7041 C.3       12 UNK        -0.0947 
     70 S70        33.1824   -1.2209   -6.6866 S.3       12 UNK        -0.2240 
     71 C71        33.4258   -2.0551   -5.0869 C.3       12 UNK         0.0194 
     72 H72        24.7826   -3.6481    2.0242 H         1 UNK         0.0906 
     73 H73        23.6391   -2.5742    1.2133 H         1 UNK         0.0906 
     74 H74        24.1325   -4.0833    0.4425 H         1 UNK         0.0906 
     75 H75        25.5837   -3.7212   -1.2216 H         1 UNK         0.3140 
     76 H76        27.9361   -2.0462   -0.8970 H         1 UNK         0.1085 
     77 H77        28.4744   -2.8849   -3.2253 H         1 UNK         0.0836 
     78 H78        26.9673   -3.7550   -3.2402 H         1 UNK         0.0836 
     79 H79        30.4182   -3.3332   -1.2691 H         1 UNK         0.0731 
     80 H80        30.8796   -5.0183   -1.2255 H         1 UNK         0.0731 
     81 H81        32.1424   -2.5246   -2.7382 H         1 UNK         0.1312 
     82 H82        32.3444   -3.9420   -6.7846 H         1 UNK         0.1406 
     83 H83        29.7607   -5.8688   -3.9720 H         1 UNK         0.1631 
     84 H84        30.0082   -6.8107   -6.1412 H         1 UNK         0.0717 
     85 H85        31.3586   -6.3272   -7.1339 H         1 UNK         0.0717 
     86 H86        27.1971   -5.3103   -6.7549 H         1 UNK         0.0934 
     87 H87        28.2907   -4.5647   -5.6311 H         1 UNK         0.0934 
     88 H88        27.2025   -3.2151   -8.1365 H         1 UNK         0.0739 
     89 H89        25.8066   -3.6219   -5.8086 H         1 UNK         0.3093 
     90 H90        23.2965   -1.8377   -6.6263 H         1 UNK         0.0818 
     91 H91        22.8675   -2.7525   -4.3226 H         1 UNK         0.0819 
     92 H92        23.8444   -3.8522   -5.2696 H         1 UNK         0.0819 
     93 H93        24.5946   -2.8481   -4.0232 H         1 UNK         0.0819 
     94 H94        24.7965   -0.1319   -4.7415 H         1 UNK         0.3041 
     95 H95        23.2011    2.4428   -5.3072 H         1 UNK         0.0784 
     96 H96        20.9036    2.2501   -4.4729 H         1 UNK         0.0793 
     97 H97        21.4407    1.4474   -3.0074 H         1 UNK         0.0793 
     98 H98        21.8594    3.1357   -3.2976 H         1 UNK         0.0793 
     99 H99        24.9204    2.4575   -3.9351 H         1 UNK         0.3024 
    100 H100       26.5118    1.6819   -2.6405 H         1 UNK         0.1171 
    101 H101       25.1419    1.8418    0.1058 H         1 UNK         0.0786 
    102 H102       25.4121    3.2042   -0.9730 H         1 UNK         0.0786 
    103 H103       26.7841    2.3703   -0.2609 H         1 UNK         0.0786 
    104 H104       26.3853   -0.2083   -0.4692 H         1 UNK         0.2977 
    105 H105       27.9498   -1.6554   -4.9857 H         1 UNK         0.3127 
    106 H106       30.5369   -0.7030   -5.8451 H         1 UNK         0.0770 
    107 H107       29.8986   -1.0291   -3.4139 H         1 UNK         0.0814 
    108 H108       28.8411    0.3818   -3.5475 H         1 UNK         0.0814 
    109 H109       30.5690    0.5471   -3.7701 H         1 UNK         0.0814 
    110 H110       27.2577    0.4730   -6.2042 H         1 UNK         0.2983 
    111 H111       28.0725    3.1801   -7.0567 H         1 UNK         0.0947 
    112 H112       25.6280    3.4749   -7.4675 H         1 UNK         0.0806 
    113 H113       25.9465    2.9528   -5.8237 H         1 UNK         0.0806 
    114 H114       25.3303    1.8039   -7.0138 H         1 UNK         0.0806 
    115 H115       26.7770    0.1415   -8.4497 H         1 UNK         0.3000 
    116 H116       26.6075    0.9858  -11.1300 H         1 UNK         0.0850 
    117 H117       26.4379   -1.4423  -11.6359 H         1 UNK         0.0810 
    118 H118       25.4743   -1.0395  -10.2224 H         1 UNK         0.0810 
    119 H119       27.0310   -1.8433  -10.0312 H         1 UNK         0.0810 
    120 H120       29.3148   -0.7510   -9.4775 H         1 UNK         0.3040 
    121 H121       31.0346   -0.5519  -11.8536 H         1 UNK         0.0766 
    122 H122       32.6621   -1.7419  -10.3778 H         1 UNK         0.0812 
    123 H123       31.1128   -2.5698  -10.4271 H         1 UNK         0.0812 
    124 H124       31.5478   -1.6008   -9.0262 H         1 UNK         0.0812 
    125 H125       30.2000    1.5698   -9.3646 H         1 UNK         0.3205 
    126 H126       30.8689    3.5042   -8.5916 H         1 UNK         0.0754 
    127 H127       32.1867    5.0215  -10.0102 H         1 UNK         0.0769 
    128 H128       31.0789    4.1032  -11.0145 H         1 UNK         0.0769 
    129 H129       32.7906    3.6797  -10.9697 H         1 UNK         0.0769 
    130 H130       32.4207    1.0139   -7.8286 H         1 UNK         0.2981 
    131 H131       34.9722    2.0628   -6.8655 H         1 UNK         0.0541 
    132 H132       32.2412    2.5638   -3.9687 H         1 UNK         0.3459 
    133 H133       31.7388    2.2160   -5.6104 H         1 UNK         0.3459 
    134 H134       35.2712   -0.2545   -5.9128 H         1 UNK         0.0612 
    135 H135       35.0993   -0.1729   -7.6381 H         1 UNK         0.0612 
    136 H136       33.4344   -1.2961   -4.3028 H         1 UNK         0.0624 
    137 H137       34.4068   -2.5316   -5.0779 H         1 UNK         0.0624 
@<TRIPOS>BOND
     1    1    2 1    
     2    1   72 1    
     3    1   73 1    
     4    1   74 1    
     5    2    3 2    
     6    2    4 am   BACKBONE|DICT|INTERRES
     7    4    5 1    
     8    4   75 1    
     9    5    6 1    
    10    5   35 1    
    11    5   76 1    
    12    6    7 1    
    13    6   77 1    
    14    6   78 1    
    15    7    8 1    
    16    8    9 1    
    17    8   79 1    
    18    8   80 1    
    19    9   10 ar   
    20    9   14 ar   
    21   10   11 ar   
    22   10   81 1    
    23   11   12 ar   
    24   11   71 1    
    25   12   13 ar   
    26   12   82 1    
    27   13   14 ar   
    28   13   15 1    
    29   14   83 1    
    30   15   16 1    
    31   15   84 1    
    32   15   85 1    
    33   16   17 1    
    34   17   18 1    
    35   17   86 1    
    36   17   87 1    
    37   18   19 1    
    38   18   37 1    
    39   18   88 1    
    40   19   20 am   BACKBONE|DICT|INTERRES
    41   19   89 1    
    42   20   21 2    
    43   20   22 1    
    44   22   23 1    
    45   22   24 1    
    46   22   90 1    
    47   23   91 1    
    48   23   92 1    
    49   23   93 1    
    50   24   25 am   BACKBONE|DICT|INTERRES
    51   24   94 1    
    52   25   26 2    
    53   25   27 1    
    54   27   28 1    
    55   27   29 1    
    56   27   95 1    
    57   28   96 1    
    58   28   97 1    
    59   28   98 1    
    60   29   30 am   BACKBONE|DICT|INTERRES
    61   29   99 1    
    62   30   31 2    
    63   30   32 1    
    64   32   33 1    
    65   32   34 1    
    66   32  100 1    
    67   33  101 1    
    68   33  102 1    
    69   33  103 1    
    70   34   35 am   BACKBONE|DICT|INTERRES
    71   34  104 1    
    72   35   36 2    
    73   37   38 2    
    74   37   39 am   BACKBONE|DICT|INTERRES
    75   39   40 1    
    76   39  105 1    
    77   40   41 1    
    78   40   42 1    
    79   40  106 1    
    80   41  107 1    
    81   41  108 1    
    82   41  109 1    
    83   42   43 2    
    84   42   44 am   BACKBONE|DICT|INTERRES
    85   44   45 1    
    86   44  110 1    
    87   45   46 1    
    88   45   47 1    
    89   45  111 1    
    90   46  112 1    
    91   46  113 1    
    92   46  114 1    
    93   47   48 2    
    94   47   49 am   BACKBONE|DICT|INTERRES
    95   49   50 1    
    96   49  115 1    
    97   50   51 1    
    98   50   52 1    
    99   50  116 1    
   100   51  117 1    
   101   51  118 1    
   102   51  119 1    
   103   52   53 2    
   104   52   54 am   BACKBONE|DICT|INTERRES
   105   54   55 1    
   106   54  120 1    
   107   55   56 1    
   108   55   57 1    
   109   55  121 1    
   110   56  122 1    
   111   56  123 1    
   112   56  124 1    
   113   57   58 2    
   114   57   59 am   BACKBONE|DICT|INTERRES
   115   59   60 1    
   116   59  125 1    
   117   60   61 1    
   118   60   62 1    
   119   60  126 1    
   120   61  127 1    
   121   61  128 1    
   122   61  129 1    
   123   62   63 2    
   124   62   64 am   BACKBONE|DICT|INTERRES
   125   64   65 1    
   126   64  130 1    
   127   65   66 1    
   128   65   69 1    
   129   65  131 1    
   130   66   67 am   BACKBONE|DICT|INTERRES
   131   66   68 2    
   132   67  132 1    
   133   67  133 1    
   134   69   70 1    
   135   69  134 1    
   136   69  135 1    
   137   70   71 1    
   138   71  136 1    
   139   71  137 1    
@<TRIPOS>SUBSTRUCTURE
     1 UNK         1 GROUP             0       ****    0 ROOT    
