@<TRIPOS>MOLECULE
3R137
137   139    1
SMALL
USER_CHARGES


@<TRIPOS>ATOM
      1 CA         25.1004   -6.3034    1.8091 C.3       0 UNK        -0.2020 
      2 C          25.7852   -4.9495    1.6974 C.2       0 UNK         0.4855 
      3 O          25.5453   -4.0731    2.5280 O.2       0 UNK        -0.5197 
      4 N          26.6392   -4.7745    0.6795 N.am      1 UNK        -0.4892 
      5 CA         27.3633   -3.5272    0.3950 C.3       1 UNK         0.0835 
      6 C6         28.5006   -3.7618   -0.6315 C.3       12 UNK        -0.0855 
      7 S7         29.9650   -2.7132   -0.3403 S.3       12 UNK        -0.2931 
      8 C8         31.2597   -3.6512   -1.2222 C.3       12 UNK         0.0378 
      9 C9         31.1713   -3.4622   -2.7314 C.ar      12 UNK        -0.0802 
     10 C10        32.0662   -2.6160   -3.3946 C.ar      12 UNK        -0.0944 
     11 C11        31.9828   -2.4381   -4.7796 C.ar      12 UNK        -0.0787 
     12 C12        30.9668   -3.0796   -5.4961 C.ar      12 UNK        -0.0862 
     13 C13        30.0668   -3.9284   -4.8436 C.ar      12 UNK        -0.0733 
     14 C14        30.1992   -4.1418   -3.4705 C.ar      12 UNK        -0.0832 
     15 C15        28.9562   -4.6258   -5.6149 C.3       12 UNK         0.0240 
     16 S16        27.3050   -4.0564   -5.0764 S.3       12 UNK        -0.2522 
     17 C17        26.4458   -3.8985   -6.6817 C.3       12 UNK        -0.0967 
     18 CA         26.3356   -2.4598   -7.2565 C.3       5 UNK         0.0660 
     19 N          25.2258   -1.6890   -6.6865 N.am      5 UNK        -0.4015 
     20 C          24.6641   -0.6467   -7.3195 C.2       4 UNK         0.4946 
     21 O          25.0245   -0.2464   -8.4277 O.2       4 UNK        -0.5353 
     22 CA         23.5323    0.0940   -6.5896 C.3       4 UNK         0.0277 
     23 CB         22.2279   -0.7186   -6.6347 C.3       4 UNK        -0.1981 
     24 N          23.8576    0.4317   -5.2026 N.am      4 UNK        -0.4209 
     25 C          24.8704    1.2251   -4.8236 C.2       3 UNK         0.4942 
     26 O          25.6538    1.7553   -5.6081 O.2       3 UNK        -0.5208 
     27 CA         25.0575    1.4614   -3.3155 C.3       3 UNK         0.0250 
     28 CB         24.3636    2.7647   -2.8888 C.3       3 UNK        -0.1990 
     29 N          24.5841    0.3589   -2.4738 N.am      3 UNK        -0.4232 
     30 C          25.0892   -0.8817   -2.4883 C.2       2 UNK         0.4993 
     31 O          25.9766   -1.2554   -3.2598 O.2       2 UNK        -0.5286 
     32 CA         24.4467   -1.8827   -1.5148 C.3       2 UNK         0.0209 
     33 CB         23.3809   -2.7207   -2.2406 C.3       2 UNK        -0.1931 
     34 N          25.4351   -2.7809   -0.9193 N.am      2 UNK        -0.4546 
     35 C          26.4114   -2.4072   -0.0782 C.2       1 UNK         0.5154 
     36 O          26.5546   -1.2572    0.3414 O.2       1 UNK        -0.5181 
     37 C          27.6547   -1.6601   -7.2235 C.2       5 UNK         0.5014 
     38 O          28.4519   -1.7788   -8.1540 O.2       5 UNK        -0.5248 
     39 N          27.8425   -0.8330   -6.1834 N.am      6 UNK        -0.4434 
     40 CA         28.9826    0.0724   -6.0483 C.3       6 UNK         0.0363 
     41 CB         28.9977    0.6906   -4.6427 C.3       6 UNK        -0.1936 
     42 C          29.0014    1.1552   -7.1383 C.2       6 UNK         0.5081 
     43 O          30.0576    1.4136   -7.7141 O.2       6 UNK        -0.5248 
     44 N          27.8283    1.7285   -7.4425 N.am      7 UNK        -0.4718 
     45 CA         27.6197    2.6697   -8.5439 C.3       7 UNK         0.0273 
     46 CB         26.2212    3.2967   -8.4344 C.3       7 UNK        -0.1935 
     47 C          27.8180    2.0238   -9.9243 C.2       7 UNK         0.5018 
     48 O          28.4061    2.6602  -10.7981 O.2       7 UNK        -0.5186 
     49 N          27.3596    0.7731  -10.0910 N.am      8 UNK        -0.4240 
     50 CA         27.5637   -0.0254  -11.3049 C.3       8 UNK         0.0235 
     51 CB         26.7023   -1.2970  -11.2518 C.3       8 UNK        -0.2000 
     52 C          29.0437   -0.3738  -11.5439 C.2       8 UNK         0.4941 
     53 O          29.5117   -0.2713  -12.6785 O.2       8 UNK        -0.5273 
     54 N          29.7593   -0.7458  -10.4723 N.am      9 UNK        -0.4262 
     55 CA         31.2096   -0.9652  -10.4709 C.3       9 UNK         0.0264 
     56 CB         31.6052   -1.6915   -9.1753 C.3       9 UNK        -0.1955 
     57 C          32.0230    0.3352  -10.6167 C.2       9 UNK         0.5031 
     58 O          33.1686    0.2781  -11.0657 O.2       9 UNK        -0.5390 
     59 N          31.4205    1.4653  -10.2207 N.am      10 UNK        -0.4204 
     60 CA         31.9729    2.8207  -10.1543 C.3       10 UNK         0.0237 
     61 CB         32.3497    3.3420  -11.5577 C.3       10 UNK        -0.1985 
     62 C          33.1127    2.9456   -9.1252 C.2       10 UNK         0.4970 
     63 O          34.0644    3.6947   -9.3563 O.2       10 UNK        -0.4914 
     64 N          32.9978    2.2124   -8.0100 N.am      11 UNK        -0.4285 
     65 CA         33.9409    2.2606   -6.8849 C.3       11 UNK         0.1007 
     66 C          33.6150    3.3987   -5.8763 C.2       11 UNK         0.5703 
     67 N          34.5254    3.6876   -4.9555 N.am      11 UNK        -0.7361 
     68 O          32.5552    4.0226   -5.9126 O.2       11 UNK        -0.4986 
     69 C69        34.1142    0.8707   -6.2159 C.3       12 UNK        -0.0947 
     70 S70        32.6036    0.1802   -5.4634 S.3       12 UNK        -0.2240 
     71 C71        33.0176   -1.5879   -5.5018 C.3       12 UNK         0.0194 
     72 H72        24.0191   -6.1826    1.7488 H         1 UNK         0.0906 
     73 H73        25.4097   -6.9854    1.0173 H         1 UNK         0.0906 
     74 H74        25.3384   -6.7663    2.7665 H         1 UNK         0.0906 
     75 H75        26.8007   -5.5378    0.0374 H         1 UNK         0.3140 
     76 H76        27.8047   -3.1985    1.3391 H         1 UNK         0.1085 
     77 H77        28.8365   -4.7988   -0.5804 H         1 UNK         0.0836 
     78 H78        28.1468   -3.6111   -1.6536 H         1 UNK         0.0836 
     79 H79        32.2336   -3.3182   -0.8600 H         1 UNK         0.0731 
     80 H80        31.1937   -4.7110   -0.9717 H         1 UNK         0.0731 
     81 H81        32.8377   -2.1033   -2.8363 H         1 UNK         0.1312 
     82 H82        30.8833   -2.9264   -6.5631 H         1 UNK         0.1406 
     83 H83        29.5200   -4.8220   -2.9777 H         1 UNK         0.1631 
     84 H84        29.0880   -4.4531   -6.6839 H         1 UNK         0.0717 
     85 H85        29.0283   -5.7041   -5.4674 H         1 UNK         0.0717 
     86 H86        26.9407   -4.5408   -7.4120 H         1 UNK         0.0934 
     87 H87        25.4488   -4.3281   -6.5723 H         1 UNK         0.0934 
     88 H88        26.0979   -2.5919   -8.3143 H         1 UNK         0.0739 
     89 H89        24.9215   -1.9371   -5.7558 H         1 UNK         0.3093 
     90 H90        23.3640    1.0329   -7.1219 H         1 UNK         0.0818 
     91 H91        21.3934   -0.1519   -6.2211 H         1 UNK         0.0819 
     92 H92        21.9639   -0.9746   -7.6619 H         1 UNK         0.0819 
     93 H93        22.3086   -1.6523   -6.0767 H         1 UNK         0.0819 
     94 H94        23.2615    0.0471   -4.4850 H         1 UNK         0.3041 
     95 H95        26.1283    1.5727   -3.1349 H         1 UNK         0.0784 
     96 H96        24.7182    3.6077   -3.4840 H         1 UNK         0.0793 
     97 H97        23.2817    2.7086   -3.0163 H         1 UNK         0.0793 
     98 H98        24.5683    3.0010   -1.8443 H         1 UNK         0.0793 
     99 H99        23.8464    0.5791   -1.8196 H         1 UNK         0.3024 
    100 H100       23.9685   -1.3313   -0.7020 H         1 UNK         0.1171 
    101 H101       22.8875   -3.4133   -1.5583 H         1 UNK         0.0786 
    102 H102       22.6053   -2.0845   -2.6691 H         1 UNK         0.0786 
    103 H103       23.8127   -3.3030   -3.0562 H         1 UNK         0.0786 
    104 H104       25.4061   -3.7452   -1.2149 H         1 UNK         0.2977 
    105 H105       27.1563   -0.8223   -5.4401 H         1 UNK         0.3127 
    106 H106       29.8856   -0.5264   -6.1670 H         1 UNK         0.0770 
    107 H107       28.1141    1.3004   -4.4589 H         1 UNK         0.0814 
    108 H108       29.8692    1.3333   -4.5121 H         1 UNK         0.0814 
    109 H109       29.0445   -0.0804   -3.8727 H         1 UNK         0.0814 
    110 H110       27.0146    1.5157   -6.8686 H         1 UNK         0.2983 
    111 H111       28.3600    3.4666   -8.4440 H         1 UNK         0.0947 
    112 H112       26.0464    4.0087   -9.2421 H         1 UNK         0.0806 
    113 H113       26.1028    3.8365   -7.4947 H         1 UNK         0.0806 
    114 H114       25.4354    2.5420   -8.4857 H         1 UNK         0.0806 
    115 H115       26.8258    0.3464   -9.3408 H         1 UNK         0.3000 
    116 H116       27.2252    0.5748  -12.1523 H         1 UNK         0.0850 
    117 H117       26.7832   -1.8592  -12.1830 H         1 UNK         0.0810 
    118 H118       25.6485   -1.0582  -11.1071 H         1 UNK         0.0810 
    119 H119       27.0100   -1.9615  -10.4451 H         1 UNK         0.0810 
    120 H120       29.2746   -0.8990   -9.5894 H         1 UNK         0.3040 
    121 H121       31.4585   -1.6086  -11.3174 H         1 UNK         0.0766 
    122 H122       31.0932   -2.6498   -9.0868 H         1 UNK         0.0812 
    123 H123       31.3605   -1.0977   -8.2935 H         1 UNK         0.0812 
    124 H124       32.6773   -1.8909   -9.1489 H         1 UNK         0.0812 
    125 H125       30.5134    1.3629   -9.7799 H         1 UNK         0.3205 
    126 H126       31.1643    3.4498   -9.7792 H         1 UNK         0.0754 
    127 H127       32.6181    4.3985  -11.5232 H         1 UNK         0.0769 
    128 H128       31.5148    3.2432  -12.2517 H         1 UNK         0.0769 
    129 H129       33.2008    2.8042  -11.9764 H         1 UNK         0.0769 
    130 H130       32.1358    1.7025   -7.8484 H         1 UNK         0.2981 
    131 H131       34.9205    2.5153   -7.2940 H         1 UNK         0.0541 
    132 H132       35.3994    3.1877   -4.9097 H         1 UNK         0.3459 
    133 H133       34.3325    4.4208   -4.2914 H         1 UNK         0.3459 
    134 H134       34.4793    0.1659   -6.9648 H         1 UNK         0.0612 
    135 H135       34.8890    0.9082   -5.4486 H         1 UNK         0.0612 
    136 H136       33.9956   -1.7356   -5.0410 H         1 UNK         0.0624 
    137 H137       33.1158   -1.9120   -6.5386 H         1 UNK         0.0624 
@<TRIPOS>BOND
     1    1    2 1    
     2    1   72 1    
     3    1   73 1    
     4    1   74 1    
     5    2    3 2    
     6    2    4 am   BACKBONE|DICT|INTERRES
     7    4    5 1    
     8    4   75 1    
     9    5    6 1    
    10    5   35 1    
    11    5   76 1    
    12    6    7 1    
    13    6   77 1    
    14    6   78 1    
    15    7    8 1    
    16    8    9 1    
    17    8   79 1    
    18    8   80 1    
    19    9   10 ar   
    20    9   14 ar   
    21   10   11 ar   
    22   10   81 1    
    23   11   12 ar   
    24   11   71 1    
    25   12   13 ar   
    26   12   82 1    
    27   13   14 ar   
    28   13   15 1    
    29   14   83 1    
    30   15   16 1    
    31   15   84 1    
    32   15   85 1    
    33   16   17 1    
    34   17   18 1    
    35   17   86 1    
    36   17   87 1    
    37   18   19 1    
    38   18   37 1    
    39   18   88 1    
    40   19   20 am   BACKBONE|DICT|INTERRES
    41   19   89 1    
    42   20   21 2    
    43   20   22 1    
    44   22   23 1    
    45   22   24 1    
    46   22   90 1    
    47   23   91 1    
    48   23   92 1    
    49   23   93 1    
    50   24   25 am   BACKBONE|DICT|INTERRES
    51   24   94 1    
    52   25   26 2    
    53   25   27 1    
    54   27   28 1    
    55   27   29 1    
    56   27   95 1    
    57   28   96 1    
    58   28   97 1    
    59   28   98 1    
    60   29   30 am   BACKBONE|DICT|INTERRES
    61   29   99 1    
    62   30   31 2    
    63   30   32 1    
    64   32   33 1    
    65   32   34 1    
    66   32  100 1    
    67   33  101 1    
    68   33  102 1    
    69   33  103 1    
    70   34   35 am   BACKBONE|DICT|INTERRES
    71   34  104 1    
    72   35   36 2    
    73   37   38 2    
    74   37   39 am   BACKBONE|DICT|INTERRES
    75   39   40 1    
    76   39  105 1    
    77   40   41 1    
    78   40   42 1    
    79   40  106 1    
    80   41  107 1    
    81   41  108 1    
    82   41  109 1    
    83   42   43 2    
    84   42   44 am   BACKBONE|DICT|INTERRES
    85   44   45 1    
    86   44  110 1    
    87   45   46 1    
    88   45   47 1    
    89   45  111 1    
    90   46  112 1    
    91   46  113 1    
    92   46  114 1    
    93   47   48 2    
    94   47   49 am   BACKBONE|DICT|INTERRES
    95   49   50 1    
    96   49  115 1    
    97   50   51 1    
    98   50   52 1    
    99   50  116 1    
   100   51  117 1    
   101   51  118 1    
   102   51  119 1    
   103   52   53 2    
   104   52   54 am   BACKBONE|DICT|INTERRES
   105   54   55 1    
   106   54  120 1    
   107   55   56 1    
   108   55   57 1    
   109   55  121 1    
   110   56  122 1    
   111   56  123 1    
   112   56  124 1    
   113   57   58 2    
   114   57   59 am   BACKBONE|DICT|INTERRES
   115   59   60 1    
   116   59  125 1    
   117   60   61 1    
   118   60   62 1    
   119   60  126 1    
   120   61  127 1    
   121   61  128 1    
   122   61  129 1    
   123   62   63 2    
   124   62   64 am   BACKBONE|DICT|INTERRES
   125   64   65 1    
   126   64  130 1    
   127   65   66 1    
   128   65   69 1    
   129   65  131 1    
   130   66   67 am   BACKBONE|DICT|INTERRES
   131   66   68 2    
   132   67  132 1    
   133   67  133 1    
   134   69   70 1    
   135   69  134 1    
   136   69  135 1    
   137   70   71 1    
   138   71  136 1    
   139   71  137 1    
@<TRIPOS>SUBSTRUCTURE
     1 UNK         1 GROUP             0       ****    0 ROOT    
