@<TRIPOS>MOLECULE
3R137
137   139    1
SMALL
USER_CHARGES


@<TRIPOS>ATOM
      1 CA         25.7467   -6.1228    1.2631 C.3       0 UNK        -0.2020 
      2 C          26.3954   -4.8452    0.7532 C.2       0 UNK         0.4855 
      3 O          26.2514   -3.7924    1.3758 O.2       0 UNK        -0.5197 
      4 N          27.0991   -4.9198   -0.3833 N.am      1 UNK        -0.4892 
      5 CA         27.8227   -3.8140   -1.0246 C.3       1 UNK         0.0835 
      6 C6         28.9352   -4.3377   -1.9728 C.3       12 UNK        -0.0855 
      7 S7         30.3353   -5.1181   -1.1008 S.3       12 UNK        -0.2931 
      8 C8         31.2320   -3.7019   -0.3615 C.3       12 UNK         0.0378 
      9 C9         31.2830   -2.4590   -1.2465 C.ar      12 UNK        -0.0802 
     10 C10        31.9182   -2.4954   -2.4927 C.ar      12 UNK        -0.0944 
     11 C11        31.9287   -1.3637   -3.3140 C.ar      12 UNK        -0.0787 
     12 C12        31.3319   -0.1817   -2.8687 C.ar      12 UNK        -0.0862 
     13 C13        30.6900   -0.1295   -1.6271 C.ar      12 UNK        -0.0733 
     14 C14        30.6745   -1.2727   -0.8211 C.ar      12 UNK        -0.0832 
     15 C15        30.0180    1.1508   -1.1324 C.3       12 UNK         0.0240 
     16 S16        29.1234    2.0883   -2.4218 S.3       12 UNK        -0.2522 
     17 C17        27.9052    0.8697   -3.0212 C.3       12 UNK        -0.0967 
     18 CA         27.9987    0.6522   -4.5545 C.3       5 UNK         0.0660 
     19 N          27.5930   -0.7061   -4.9355 N.am      5 UNK        -0.4015 
     20 C          27.5850   -1.2164   -6.1766 C.2       4 UNK         0.4946 
     21 O          27.9435   -0.5944   -7.1744 O.2       4 UNK        -0.5353 
     22 CA         27.0281   -2.6383   -6.3412 C.3       4 UNK         0.0277 
     23 CB         28.1010   -3.6921   -6.0256 C.3       4 UNK        -0.1981 
     24 N          25.8649   -2.8458   -5.4779 N.am      4 UNK        -0.4209 
     25 C          24.6059   -2.5346   -5.8140 C.2       3 UNK         0.4942 
     26 O          24.2754   -2.1263   -6.9275 O.2       3 UNK        -0.5208 
     27 CA         23.5269   -2.6950   -4.7261 C.3       3 UNK         0.0250 
     28 CB         22.8986   -4.0962   -4.7955 C.3       3 UNK        -0.1990 
     29 N          24.0112   -2.4481   -3.3638 N.am      3 UNK        -0.4232 
     30 C          24.4439   -1.2623   -2.9132 C.2       2 UNK         0.4993 
     31 O          24.4937   -0.2426   -3.6024 O.2       2 UNK        -0.5286 
     32 CA         24.9607   -1.2179   -1.4625 C.3       2 UNK         0.0209 
     33 CB         23.7847   -1.1251   -0.4771 C.3       2 UNK        -0.1931 
     34 N          25.8486   -2.3201   -1.0564 N.am      2 UNK        -0.4546 
     35 C          26.8813   -2.8227   -1.7480 C.2       1 UNK         0.5154 
     36 O          27.1089   -2.5215   -2.9185 O.2       1 UNK        -0.5181 
     37 C          27.2155    1.7393   -5.3218 C.2       5 UNK         0.5014 
     38 O          27.8003    2.7466   -5.7218 O.2       5 UNK        -0.5248 
     39 N          25.9219    1.4856   -5.5721 N.am      6 UNK        -0.4434 
     40 CA         25.0337    2.3018   -6.4047 C.3       6 UNK         0.0363 
     41 CB         23.6254    1.6863   -6.3770 C.3       6 UNK        -0.1936 
     42 C          25.5036    2.4954   -7.8626 C.2       6 UNK         0.5081 
     43 O          25.0920    3.4711   -8.4907 O.2       6 UNK        -0.5248 
     44 N          26.3574    1.5967   -8.3763 N.am      7 UNK        -0.4718 
     45 CA         26.9810    1.7019   -9.6994 C.3       7 UNK         0.0273 
     46 CB         27.1951    0.2892  -10.2661 C.3       7 UNK        -0.1935 
     47 C          28.2992    2.5037   -9.6796 C.2       7 UNK         0.5018 
     48 O          28.9173    2.6563  -10.7359 O.2       7 UNK        -0.5186 
     49 N          28.7059    3.0098   -8.5032 N.am      8 UNK        -0.4240 
     50 CA         29.8704    3.8623   -8.2489 C.3       8 UNK         0.0235 
     51 CB         29.6373    5.2760   -8.8303 C.3       8 UNK        -0.2000 
     52 C          31.1806    3.1993   -8.7082 C.2       8 UNK         0.4941 
     53 O          31.6236    2.2422   -8.0737 O.2       8 UNK        -0.5273 
     54 N          31.7716    3.7065   -9.7985 N.am      9 UNK        -0.4262 
     55 CA         32.9937    3.1830  -10.4112 C.3       9 UNK         0.0264 
     56 CB         33.5056    4.1878  -11.4558 C.3       9 UNK        -0.1955 
     57 C          32.8228    1.7904  -11.0446 C.2       9 UNK         0.5031 
     58 O          33.8087    1.0594  -11.1463 O.2       9 UNK        -0.5390 
     59 N          31.5940    1.4284  -11.4406 N.am      10 UNK        -0.4204 
     60 CA         31.2586    0.1377  -12.0476 C.3       10 UNK         0.0237 
     61 CB         30.1947    0.3592  -13.1395 C.3       10 UNK        -0.1985 
     62 C          30.8320   -0.8988  -10.9887 C.2       10 UNK         0.4970 
     63 O          29.8729   -1.6394  -11.2091 O.2       10 UNK        -0.4914 
     64 N          31.5512   -0.9367   -9.8587 N.am      11 UNK        -0.4285 
     65 CA         31.3266   -1.8649   -8.7385 C.3       11 UNK         0.1007 
     66 C          31.5969   -3.3635   -9.0713 C.2       11 UNK         0.5703 
     67 N          32.3934   -3.6801  -10.0864 N.am      11 UNK        -0.7361 
     68 O          31.0684   -4.2528   -8.4096 O.2       11 UNK        -0.4986 
     69 C69        32.1154   -1.4079   -7.4794 C.3       12 UNK        -0.0947 
     70 S70        31.2734   -1.8446   -5.9267 S.3       12 UNK        -0.2240 
     71 C71        32.5443   -1.4174   -4.7019 C.3       12 UNK         0.0194 
     72 H72        26.1176   -6.3587    2.2602 H         1 UNK         0.0906 
     73 H73        24.6660   -5.9970    1.3224 H         1 UNK         0.0906 
     74 H74        25.9545   -6.9735    0.6143 H         1 UNK         0.0906 
     75 H75        27.1738   -5.8104   -0.8547 H         1 UNK         0.3140 
     76 H76        28.3062   -3.2280   -0.2406 H         1 UNK         0.1085 
     77 H77        29.3384   -3.5459   -2.6049 H         1 UNK         0.0836 
     78 H78        28.5193   -5.0661   -2.6712 H         1 UNK         0.0836 
     79 H79        32.2513   -4.0151   -0.1316 H         1 UNK         0.0731 
     80 H80        30.7674   -3.4684    0.5977 H         1 UNK         0.0731 
     81 H81        32.3724   -3.4150   -2.8359 H         1 UNK         0.1312 
     82 H82        31.3466    0.6921   -3.5055 H         1 UNK         0.1406 
     83 H83        30.1838   -1.2384    0.1423 H         1 UNK         0.1631 
     84 H84        30.7825    1.7978   -0.7005 H         1 UNK         0.0717 
     85 H85        29.3148    0.9262   -0.3288 H         1 UNK         0.0717 
     86 H86        28.0828   -0.0694   -2.4975 H         1 UNK         0.0934 
     87 H87        26.9051    1.1857   -2.7188 H         1 UNK         0.0934 
     88 H88        29.0446    0.7339   -4.8586 H         1 UNK         0.0739 
     89 H89        27.3251   -1.3249   -4.1716 H         1 UNK         0.3093 
     90 H90        26.7307   -2.7651   -7.3846 H         1 UNK         0.0818 
     91 H91        28.5048   -3.5771   -5.0194 H         1 UNK         0.0819 
     92 H92        27.7052   -4.7035   -6.1165 H         1 UNK         0.0819 
     93 H93        28.9363   -3.6095   -6.7215 H         1 UNK         0.0819 
     94 H94        26.0621   -3.0991   -4.5159 H         1 UNK         0.3041 
     95 H95        22.7458   -1.9608   -4.9358 H         1 UNK         0.0784 
     96 H96        22.5054   -4.2981   -5.7930 H         1 UNK         0.0793 
     97 H97        23.6252   -4.8771   -4.5675 H         1 UNK         0.0793 
     98 H98        22.0678   -4.1943   -4.0965 H         1 UNK         0.0793 
     99 H99        24.0267   -3.2346   -2.7307 H         1 UNK         0.3024 
    100 H100       25.5435   -0.3004   -1.3675 H         1 UNK         0.1171 
    101 H101       24.1328   -0.9417    0.5396 H         1 UNK         0.0786 
    102 H102       23.1152   -0.3048   -0.7407 H         1 UNK         0.0786 
    103 H103       23.1923   -2.0408   -0.4675 H         1 UNK         0.0786 
    104 H104       25.7496   -2.6549   -0.1014 H         1 UNK         0.2977 
    105 H105       25.5028    0.6705   -5.1339 H         1 UNK         0.3127 
    106 H106       24.9845    3.2928   -5.9493 H         1 UNK         0.0770 
    107 H107       23.6210    0.6761   -6.7886 H         1 UNK         0.0814 
    108 H108       22.9249    2.2820   -6.9639 H         1 UNK         0.0814 
    109 H109       23.2338    1.6353   -5.3608 H         1 UNK         0.0814 
    110 H110       26.6910    0.8334   -7.7935 H         1 UNK         0.2983 
    111 H111       26.3011    2.2277  -10.3732 H         1 UNK         0.0947 
    112 H112       27.4915    0.3301  -11.3137 H         1 UNK         0.0806 
    113 H113       26.2836   -0.3062  -10.2140 H         1 UNK         0.0806 
    114 H114       27.9779   -0.2477   -9.7306 H         1 UNK         0.0806 
    115 H115       28.1621    2.7859   -7.6749 H         1 UNK         0.3000 
    116 H116       29.9462    3.9616   -7.1648 H         1 UNK         0.0850 
    117 H117       30.4849    5.9320   -8.6268 H         1 UNK         0.0810 
    118 H118       28.7619    5.7403   -8.3758 H         1 UNK         0.0810 
    119 H119       29.4742    5.2631   -9.9085 H         1 UNK         0.0810 
    120 H120       31.3220    4.4808  -10.2658 H         1 UNK         0.3040 
    121 H121       33.7478    3.0922   -9.6263 H         1 UNK         0.0766 
    122 H122       33.7135    5.1587  -11.0056 H         1 UNK         0.0812 
    123 H123       32.7850    4.3365  -12.2611 H         1 UNK         0.0812 
    124 H124       34.4341    3.8388  -11.9103 H         1 UNK         0.0812 
    125 H125       30.8121    2.0506  -11.2531 H         1 UNK         0.3205 
    126 H126       32.1414   -0.2735  -12.5417 H         1 UNK         0.0754 
    127 H127       29.9367   -0.5764  -13.6374 H         1 UNK         0.0769 
    128 H128       30.5570    1.0418  -13.9083 H         1 UNK         0.0769 
    129 H129       29.2765    0.7789  -12.7305 H         1 UNK         0.0769 
    130 H130       32.3305   -0.3012   -9.7648 H         1 UNK         0.2981 
    131 H131       30.2606   -1.7918   -8.5119 H         1 UNK         0.0541 
    132 H132       32.8336   -2.9612  -10.6375 H         1 UNK         0.3459 
    133 H133       32.5570   -4.6514  -10.2991 H         1 UNK         0.3459 
    134 H134       33.1313   -1.8078   -7.4757 H         1 UNK         0.0612 
    135 H135       32.2210   -0.3222   -7.4720 H         1 UNK         0.0612 
    136 H136       32.9856   -0.4514   -4.9523 H         1 UNK         0.0624 
    137 H137       33.3500   -2.1520   -4.7400 H         1 UNK         0.0624 
@<TRIPOS>BOND
     1    1    2 1    
     2    1   72 1    
     3    1   73 1    
     4    1   74 1    
     5    2    3 2    
     6    2    4 am   BACKBONE|DICT|INTERRES
     7    4    5 1    
     8    4   75 1    
     9    5    6 1    
    10    5   35 1    
    11    5   76 1    
    12    6    7 1    
    13    6   77 1    
    14    6   78 1    
    15    7    8 1    
    16    8    9 1    
    17    8   79 1    
    18    8   80 1    
    19    9   10 ar   
    20    9   14 ar   
    21   10   11 ar   
    22   10   81 1    
    23   11   12 ar   
    24   11   71 1    
    25   12   13 ar   
    26   12   82 1    
    27   13   14 ar   
    28   13   15 1    
    29   14   83 1    
    30   15   16 1    
    31   15   84 1    
    32   15   85 1    
    33   16   17 1    
    34   17   18 1    
    35   17   86 1    
    36   17   87 1    
    37   18   19 1    
    38   18   37 1    
    39   18   88 1    
    40   19   20 am   BACKBONE|DICT|INTERRES
    41   19   89 1    
    42   20   21 2    
    43   20   22 1    
    44   22   23 1    
    45   22   24 1    
    46   22   90 1    
    47   23   91 1    
    48   23   92 1    
    49   23   93 1    
    50   24   25 am   BACKBONE|DICT|INTERRES
    51   24   94 1    
    52   25   26 2    
    53   25   27 1    
    54   27   28 1    
    55   27   29 1    
    56   27   95 1    
    57   28   96 1    
    58   28   97 1    
    59   28   98 1    
    60   29   30 am   BACKBONE|DICT|INTERRES
    61   29   99 1    
    62   30   31 2    
    63   30   32 1    
    64   32   33 1    
    65   32   34 1    
    66   32  100 1    
    67   33  101 1    
    68   33  102 1    
    69   33  103 1    
    70   34   35 am   BACKBONE|DICT|INTERRES
    71   34  104 1    
    72   35   36 2    
    73   37   38 2    
    74   37   39 am   BACKBONE|DICT|INTERRES
    75   39   40 1    
    76   39  105 1    
    77   40   41 1    
    78   40   42 1    
    79   40  106 1    
    80   41  107 1    
    81   41  108 1    
    82   41  109 1    
    83   42   43 2    
    84   42   44 am   BACKBONE|DICT|INTERRES
    85   44   45 1    
    86   44  110 1    
    87   45   46 1    
    88   45   47 1    
    89   45  111 1    
    90   46  112 1    
    91   46  113 1    
    92   46  114 1    
    93   47   48 2    
    94   47   49 am   BACKBONE|DICT|INTERRES
    95   49   50 1    
    96   49  115 1    
    97   50   51 1    
    98   50   52 1    
    99   50  116 1    
   100   51  117 1    
   101   51  118 1    
   102   51  119 1    
   103   52   53 2    
   104   52   54 am   BACKBONE|DICT|INTERRES
   105   54   55 1    
   106   54  120 1    
   107   55   56 1    
   108   55   57 1    
   109   55  121 1    
   110   56  122 1    
   111   56  123 1    
   112   56  124 1    
   113   57   58 2    
   114   57   59 am   BACKBONE|DICT|INTERRES
   115   59   60 1    
   116   59  125 1    
   117   60   61 1    
   118   60   62 1    
   119   60  126 1    
   120   61  127 1    
   121   61  128 1    
   122   61  129 1    
   123   62   63 2    
   124   62   64 am   BACKBONE|DICT|INTERRES
   125   64   65 1    
   126   64  130 1    
   127   65   66 1    
   128   65   69 1    
   129   65  131 1    
   130   66   67 am   BACKBONE|DICT|INTERRES
   131   66   68 2    
   132   67  132 1    
   133   67  133 1    
   134   69   70 1    
   135   69  134 1    
   136   69  135 1    
   137   70   71 1    
   138   71  136 1    
   139   71  137 1    
@<TRIPOS>SUBSTRUCTURE
     1 UNK         1 GROUP             0       ****    0 ROOT    
