@<TRIPOS>MOLECULE
3R137
137   139    1
SMALL
USER_CHARGES


@<TRIPOS>ATOM
      1 CA         30.4883    0.7441   -1.0036 C.3       0 UNK        -0.2020 
      2 C          29.6693   -0.4225   -1.5349 C.2       0 UNK         0.4855 
      3 O          29.3249   -0.4344   -2.7165 O.2       0 UNK        -0.5197 
      4 N          29.3680   -1.4044   -0.6746 N.am      1 UNK        -0.4892 
      5 CA         28.5791   -2.5922   -1.0181 C.3       1 UNK         0.0835 
      6 C6         28.7200   -3.7349    0.0253 C.3       12 UNK        -0.0855 
      7 S7         30.4397   -4.1660    0.4645 S.3       12 UNK        -0.2931 
      8 C8         30.9081   -5.3218   -0.8687 C.3       12 UNK         0.0378 
      9 C9         31.0701   -4.6109   -2.2059 C.ar      12 UNK        -0.0802 
     10 C10        31.9487   -3.5297   -2.3175 C.ar      12 UNK        -0.0944 
     11 C11        32.0580   -2.8246   -3.5159 C.ar      12 UNK        -0.0787 
     12 C12        31.3047   -3.2275   -4.6212 C.ar      12 UNK        -0.0862 
     13 C13        30.4387   -4.3252   -4.5375 C.ar      12 UNK        -0.0733 
     14 C14        30.3285   -5.0123   -3.3228 C.ar      12 UNK        -0.0832 
     15 C15        29.6489   -4.8169   -5.7506 C.3       12 UNK         0.0240 
     16 S16        29.1643   -3.5096   -6.9297 S.3       12 UNK        -0.2522 
     17 C17        27.7285   -2.7592   -6.0958 C.3       12 UNK        -0.0967 
     18 CA         26.9663   -1.8080   -7.0567 C.3       5 UNK         0.0660 
     19 N          25.5211   -1.8113   -6.8264 N.am      5 UNK        -0.4015 
     20 C          24.6064   -1.4821   -7.7511 C.2       4 UNK         0.4946 
     21 O          24.8823   -1.2125   -8.9197 O.2       4 UNK        -0.5353 
     22 CA         23.1335   -1.4287   -7.3040 C.3       4 UNK         0.0277 
     23 CB         22.4464   -2.7794   -7.5613 C.3       4 UNK        -0.1981 
     24 N          22.9652   -1.0590   -5.8968 N.am      4 UNK        -0.4209 
     25 C          23.2664    0.1433   -5.3859 C.2       3 UNK         0.4942 
     26 O          23.6618    1.0931   -6.0593 O.2       3 UNK        -0.5208 
     27 CA         23.1769    0.2883   -3.8565 C.3       3 UNK         0.0250 
     28 CB         21.7553    0.6925   -3.4355 C.3       3 UNK        -0.1990 
     29 N          23.5869   -0.9164   -3.1227 N.am      3 UNK        -0.4232 
     30 C          24.7842   -1.5094   -3.2336 C.2       2 UNK         0.4993 
     31 O          25.6681   -1.1290   -4.0056 O.2       2 UNK        -0.5286 
     32 CA         24.9971   -2.7899   -2.4128 C.3       2 UNK         0.0209 
     33 CB         24.4968   -4.0118   -3.2016 C.3       2 UNK        -0.1931 
     34 N          26.4092   -2.9882   -2.0814 N.am      2 UNK        -0.4546 
     35 C          27.0911   -2.2373   -1.2071 C.2       1 UNK         0.5154 
     36 O          26.5779   -1.3439   -0.5262 O.2       1 UNK        -0.5181 
     37 C          27.5073   -0.3685   -7.0042 C.2       5 UNK         0.5014 
     38 O          28.2718    0.0246   -7.8845 O.2       5 UNK        -0.5248 
     39 N          27.0539    0.4205   -6.0182 N.am      6 UNK        -0.4434 
     40 CA         27.3565    1.8502   -5.8922 C.3       6 UNK         0.0363 
     41 CB         26.7364    2.4017   -4.6001 C.3       6 UNK        -0.1936 
     42 C          26.9054    2.6655   -7.1192 C.2       6 UNK         0.5081 
     43 O          27.6728    3.4918   -7.6129 O.2       6 UNK        -0.5248 
     44 N          25.7066    2.3643   -7.6402 N.am      7 UNK        -0.4718 
     45 CA         25.1666    2.9139   -8.8898 C.3       7 UNK         0.0273 
     46 CB         23.7001    2.4811   -9.0425 C.3       7 UNK        -0.1935 
     47 C          25.9710    2.5252  -10.1460 C.2       7 UNK         0.5018 
     48 O          25.9379    3.2644  -11.1298 O.2       7 UNK        -0.5186 
     49 N          26.7023    1.4040  -10.0849 N.am      8 UNK        -0.4240 
     50 CA         27.6356    0.9353  -11.1129 C.3       8 UNK         0.0235 
     51 CB         27.5731   -0.6019  -11.1832 C.3       8 UNK        -0.2000 
     52 C          29.0746    1.4429  -10.8744 C.2       8 UNK         0.4941 
     53 O          30.0112    0.8733  -11.4359 O.2       8 UNK        -0.5273 
     54 N          29.2255    2.5025  -10.0641 N.am      9 UNK        -0.4262 
     55 CA         30.4653    3.1928   -9.6922 C.3       9 UNK         0.0264 
     56 CB         31.2468    3.6930  -10.9275 C.3       9 UNK        -0.1955 
     57 C          31.3406    2.4203   -8.6872 C.2       9 UNK         0.5031 
     58 O          32.5460    2.6727   -8.6224 O.2       9 UNK        -0.5390 
     59 N          30.7198    1.5473   -7.8794 N.am      10 UNK        -0.4204 
     60 CA         31.3093    0.8208   -6.7517 C.3       10 UNK         0.0237 
     61 CB         31.7305    1.8071   -5.6340 C.3       10 UNK        -0.1985 
     62 C          32.4059   -0.1610   -7.2089 C.2       10 UNK         0.4970 
     63 O          32.1482   -0.9701   -8.1014 O.2       10 UNK        -0.4914 
     64 N          33.5801   -0.1084   -6.5718 N.am      11 UNK        -0.4285 
     65 CA         34.6933   -1.0492   -6.7633 C.3       11 UNK         0.1007 
     66 C          36.0938   -0.3722   -6.7277 C.2       11 UNK         0.5703 
     67 N          36.1901    0.9507   -6.8073 N.am      11 UNK        -0.7361 
     68 O          37.1143   -1.0529   -6.6532 O.2       11 UNK        -0.4986 
     69 C69        34.5574   -2.2979   -5.8435 C.3       12 UNK        -0.0947 
     70 S70        34.6615   -1.9476   -4.0506 S.3       12 UNK        -0.2240 
     71 C71        32.9362   -1.5866   -3.5889 C.3       12 UNK         0.0194 
     72 H72        31.4012    0.8573   -1.5876 H         1 UNK         0.0906 
     73 H73        29.9168    1.6685   -1.0824 H         1 UNK         0.0906 
     74 H74        30.7686    0.6046    0.0404 H         1 UNK         0.0906 
     75 H75        29.6673   -1.3446    0.2878 H         1 UNK         0.3140 
     76 H76        28.9476   -2.9502   -1.9801 H         1 UNK         0.1085 
     77 H77        28.2162   -4.6372   -0.3270 H         1 UNK         0.0836 
     78 H78        28.2165   -3.4583    0.9541 H         1 UNK         0.0836 
     79 H79        31.8552   -5.7957   -0.6073 H         1 UNK         0.0731 
     80 H80        30.1690   -6.1221   -0.9309 H         1 UNK         0.0731 
     81 H81        32.5187   -3.2113   -1.4553 H         1 UNK         0.1312 
     82 H82        31.3932   -2.6781   -5.5474 H         1 UNK         0.1406 
     83 H83        29.6612   -5.8604   -3.2459 H         1 UNK         0.1631 
     84 H84        28.7545   -5.3560   -5.4344 H         1 UNK         0.0717 
     85 H85        30.2688   -5.5393   -6.2829 H         1 UNK         0.0717 
     86 H86        27.0757   -3.5740   -5.7792 H         1 UNK         0.0934 
     87 H87        28.0490   -2.2583   -5.1786 H         1 UNK         0.0934 
     88 H88        27.1169   -2.1659   -8.0782 H         1 UNK         0.0739 
     89 H89        25.2290   -1.9199   -5.8635 H         1 UNK         0.3093 
     90 H90        22.6347   -0.6702   -7.9113 H         1 UNK         0.0818 
     91 H91        22.5354   -3.0677   -8.6098 H         1 UNK         0.0819 
     92 H92        22.8876   -3.5793   -6.9652 H         1 UNK         0.0819 
     93 H93        21.3820   -2.7342   -7.3299 H         1 UNK         0.0819 
     94 H94        22.6351   -1.7777   -5.2695 H         1 UNK         0.3041 
     95 H95        23.8577    1.0905   -3.5659 H         1 UNK         0.0784 
     96 H96        21.4375    1.5976   -3.9556 H         1 UNK         0.0793 
     97 H97        21.0271   -0.0869   -3.6635 H         1 UNK         0.0793 
     98 H98        21.7016    0.9012   -2.3668 H         1 UNK         0.0793 
     99 H99        22.9092   -1.3028   -2.4807 H         1 UNK         0.3024 
    100 H100       24.4326   -2.7092   -1.4808 H         1 UNK         0.1171 
    101 H101       23.4359   -3.9209   -3.4386 H         1 UNK         0.0786 
    102 H102       25.0321   -4.1342   -4.1442 H         1 UNK         0.0786 
    103 H103       24.6176   -4.9306   -2.6270 H         1 UNK         0.0786 
    104 H104       26.8999   -3.6938   -2.6099 H         1 UNK         0.2977 
    105 H105       26.4663    0.0049   -5.2982 H         1 UNK         0.3127 
    106 H106       28.4410    1.9455   -5.8127 H         1 UNK         0.0770 
    107 H107       25.6479    2.3545   -4.6223 H         1 UNK         0.0814 
    108 H108       27.0141    3.4458   -4.4512 H         1 UNK         0.0814 
    109 H109       27.0799    1.8452   -3.7273 H         1 UNK         0.0814 
    110 H110       25.1018    1.7245   -7.1291 H         1 UNK         0.2983 
    111 H111       25.1965    4.0028   -8.8114 H         1 UNK         0.0947 
    112 H112       23.6065    1.3963   -9.1022 H         1 UNK         0.0806 
    113 H113       23.2602    2.8980   -9.9496 H         1 UNK         0.0806 
    114 H114       23.0953    2.8239   -8.2027 H         1 UNK         0.0806 
    115 H115       26.6955    0.8706   -9.2242 H         1 UNK         0.3000 
    116 H116       27.3231    1.3229  -12.0847 H         1 UNK         0.0850 
    117 H117       28.1643   -0.9811  -12.0175 H         1 UNK         0.0810 
    118 H118       26.5505   -0.9516  -11.3267 H         1 UNK         0.0810 
    119 H119       27.9595   -1.0648  -10.2751 H         1 UNK         0.0810 
    120 H120       28.3960    2.8610   -9.6055 H         1 UNK         0.3040 
    121 H121       30.1363    4.0807   -9.1503 H         1 UNK         0.0766 
    122 H122       31.7080    2.8722  -11.4770 H         1 UNK         0.0812 
    123 H123       32.0485    4.3711  -10.6326 H         1 UNK         0.0812 
    124 H124       30.6000    4.2386  -11.6144 H         1 UNK         0.0812 
    125 H125       29.7510    1.3079   -8.0738 H         1 UNK         0.3205 
    126 H126       30.5122    0.1975   -6.3443 H         1 UNK         0.0754 
    127 H127       32.0133    1.2884   -4.7190 H         1 UNK         0.0769 
    128 H128       30.9044    2.4675   -5.3698 H         1 UNK         0.0769 
    129 H129       32.5674    2.4395   -5.9321 H         1 UNK         0.0769 
    130 H130       33.7219    0.5921   -5.8592 H         1 UNK         0.2981 
    131 H131       34.6344   -1.4177   -7.7888 H         1 UNK         0.0541 
    132 H132       37.1043    1.3749   -6.7907 H         1 UNK         0.3459 
    133 H133       35.3743    1.5242   -6.9503 H         1 UNK         0.3459 
    134 H134       35.3399   -3.0198   -6.0822 H         1 UNK         0.0612 
    135 H135       33.6254   -2.8173   -6.0595 H         1 UNK         0.0612 
    136 H136       32.9404   -1.0888   -2.6181 H         1 UNK         0.0624 
    137 H137       32.4997   -0.8726   -4.2813 H         1 UNK         0.0624 
@<TRIPOS>BOND
     1    1    2 1    
     2    1   72 1    
     3    1   73 1    
     4    1   74 1    
     5    2    3 2    
     6    2    4 am   BACKBONE|DICT|INTERRES
     7    4    5 1    
     8    4   75 1    
     9    5    6 1    
    10    5   35 1    
    11    5   76 1    
    12    6    7 1    
    13    6   77 1    
    14    6   78 1    
    15    7    8 1    
    16    8    9 1    
    17    8   79 1    
    18    8   80 1    
    19    9   10 ar   
    20    9   14 ar   
    21   10   11 ar   
    22   10   81 1    
    23   11   12 ar   
    24   11   71 1    
    25   12   13 ar   
    26   12   82 1    
    27   13   14 ar   
    28   13   15 1    
    29   14   83 1    
    30   15   16 1    
    31   15   84 1    
    32   15   85 1    
    33   16   17 1    
    34   17   18 1    
    35   17   86 1    
    36   17   87 1    
    37   18   19 1    
    38   18   37 1    
    39   18   88 1    
    40   19   20 am   BACKBONE|DICT|INTERRES
    41   19   89 1    
    42   20   21 2    
    43   20   22 1    
    44   22   23 1    
    45   22   24 1    
    46   22   90 1    
    47   23   91 1    
    48   23   92 1    
    49   23   93 1    
    50   24   25 am   BACKBONE|DICT|INTERRES
    51   24   94 1    
    52   25   26 2    
    53   25   27 1    
    54   27   28 1    
    55   27   29 1    
    56   27   95 1    
    57   28   96 1    
    58   28   97 1    
    59   28   98 1    
    60   29   30 am   BACKBONE|DICT|INTERRES
    61   29   99 1    
    62   30   31 2    
    63   30   32 1    
    64   32   33 1    
    65   32   34 1    
    66   32  100 1    
    67   33  101 1    
    68   33  102 1    
    69   33  103 1    
    70   34   35 am   BACKBONE|DICT|INTERRES
    71   34  104 1    
    72   35   36 2    
    73   37   38 2    
    74   37   39 am   BACKBONE|DICT|INTERRES
    75   39   40 1    
    76   39  105 1    
    77   40   41 1    
    78   40   42 1    
    79   40  106 1    
    80   41  107 1    
    81   41  108 1    
    82   41  109 1    
    83   42   43 2    
    84   42   44 am   BACKBONE|DICT|INTERRES
    85   44   45 1    
    86   44  110 1    
    87   45   46 1    
    88   45   47 1    
    89   45  111 1    
    90   46  112 1    
    91   46  113 1    
    92   46  114 1    
    93   47   48 2    
    94   47   49 am   BACKBONE|DICT|INTERRES
    95   49   50 1    
    96   49  115 1    
    97   50   51 1    
    98   50   52 1    
    99   50  116 1    
   100   51  117 1    
   101   51  118 1    
   102   51  119 1    
   103   52   53 2    
   104   52   54 am   BACKBONE|DICT|INTERRES
   105   54   55 1    
   106   54  120 1    
   107   55   56 1    
   108   55   57 1    
   109   55  121 1    
   110   56  122 1    
   111   56  123 1    
   112   56  124 1    
   113   57   58 2    
   114   57   59 am   BACKBONE|DICT|INTERRES
   115   59   60 1    
   116   59  125 1    
   117   60   61 1    
   118   60   62 1    
   119   60  126 1    
   120   61  127 1    
   121   61  128 1    
   122   61  129 1    
   123   62   63 2    
   124   62   64 am   BACKBONE|DICT|INTERRES
   125   64   65 1    
   126   64  130 1    
   127   65   66 1    
   128   65   69 1    
   129   65  131 1    
   130   66   67 am   BACKBONE|DICT|INTERRES
   131   66   68 2    
   132   67  132 1    
   133   67  133 1    
   134   69   70 1    
   135   69  134 1    
   136   69  135 1    
   137   70   71 1    
   138   71  136 1    
   139   71  137 1    
@<TRIPOS>SUBSTRUCTURE
     1 UNK         1 GROUP             0       ****    0 ROOT    
