@<TRIPOS>MOLECULE
3R137
137   139    1
SMALL
USER_CHARGES


@<TRIPOS>ATOM
      1 CA         29.6809   -5.6180   -4.7401 C.3       0 UNK        -0.2020 
      2 C          28.4966   -5.3100   -3.8383 C.2       0 UNK         0.4855 
      3 O          27.3833   -5.7647   -4.1047 O.2       0 UNK        -0.5197 
      4 N          28.7365   -4.5523   -2.7623 N.am      1 UNK        -0.4892 
      5 CA         27.7219   -4.1373   -1.7867 C.3       1 UNK         0.0835 
      6 C6         28.3303   -3.7475   -0.4046 C.3       12 UNK        -0.0855 
      7 S7         29.7462   -4.7761    0.1371 S.3       12 UNK        -0.2931 
      8 C8         31.1143   -3.5640    0.1978 C.3       12 UNK         0.0378 
      9 C9         31.3129   -2.8504   -1.1332 C.ar      12 UNK        -0.0802 
     10 C10        31.9350   -3.5051   -2.2002 C.ar      12 UNK        -0.0944 
     11 C11        32.0487   -2.8751   -3.4426 C.ar      12 UNK        -0.0787 
     12 C12        31.5381   -1.5850   -3.6127 C.ar      12 UNK        -0.0862 
     13 C13        30.9200   -0.9162   -2.5538 C.ar      12 UNK        -0.0733 
     14 C14        30.8389   -1.5454   -1.3078 C.ar      12 UNK        -0.0832 
     15 C15        30.2943    0.4584   -2.7672 C.3       12 UNK         0.0240 
     16 S16        28.5043    0.3855   -2.4512 S.3       12 UNK        -0.2522 
     17 C17        27.8309    1.8144   -3.3601 C.3       12 UNK        -0.0967 
     18 CA         27.7146    1.6349   -4.9028 C.3       5 UNK         0.0660 
     19 N          27.4507    0.2616   -5.3394 N.am      5 UNK        -0.4015 
     20 C          27.5726   -0.1747   -6.6021 C.2       4 UNK         0.4946 
     21 O          27.9906    0.5108   -7.5392 O.2       4 UNK        -0.5353 
     22 CA         27.1474   -1.6229   -6.8740 C.3       4 UNK         0.0277 
     23 CB         28.3225   -2.5826   -6.6290 C.3       4 UNK        -0.1981 
     24 N          25.9954   -2.0169   -6.0594 N.am      4 UNK        -0.4209 
     25 C          24.7475   -1.5693   -6.2661 C.2       3 UNK         0.4942 
     26 O          24.4424   -0.7965   -7.1735 O.2       3 UNK        -0.5208 
     27 CA         23.6589   -2.0265   -5.2799 C.3       3 UNK         0.0250 
     28 CB         23.0894   -3.3908   -5.6994 C.3       3 UNK        -0.1990 
     29 N          24.1192   -2.0935   -3.8916 N.am      3 UNK        -0.4232 
     30 C          24.5594   -1.0438   -3.1845 C.2       2 UNK         0.4993 
     31 O          24.6107    0.1063   -3.6201 O.2       2 UNK        -0.5286 
     32 CA         25.0753   -1.3291   -1.7655 C.3       2 UNK         0.0209 
     33 CB         23.9155   -1.2922   -0.7575 C.3       2 UNK        -0.1931 
     34 N          25.8310   -2.5802   -1.5982 N.am      2 UNK        -0.4546 
     35 C          26.8715   -2.9753   -2.3491 C.2       1 UNK         0.5154 
     36 O          27.1873   -2.4333   -3.4123 O.2       1 UNK        -0.5181 
     37 C          26.6533    2.5924   -5.4803 C.2       5 UNK         0.5014 
     38 O          27.0119    3.6126   -6.0678 O.2       5 UNK        -0.5248 
     39 N          25.3691    2.2285   -5.3283 N.am      6 UNK        -0.4434 
     40 CA         24.2071    2.9838   -5.8094 C.3       6 UNK         0.0363 
     41 CB         22.9167    2.3232   -5.2992 C.3       6 UNK        -0.1936 
     42 C          24.1614    3.1360   -7.3381 C.2       6 UNK         0.5081 
     43 O          23.7728    4.1966   -7.8276 O.2       6 UNK        -0.5248 
     44 N          24.5897    2.0947   -8.0649 N.am      7 UNK        -0.4718 
     45 CA         24.7520    2.1109   -9.5220 C.3       7 UNK         0.0273 
     46 CB         24.8788    0.6626  -10.0244 C.3       7 UNK        -0.1935 
     47 C          25.9569    2.9423  -10.0035 C.2       7 UNK         0.5018 
     48 O          26.0656    3.1811  -11.2067 O.2       7 UNK        -0.5186 
     49 N          26.8515    3.3288   -9.0785 N.am      8 UNK        -0.4240 
     50 CA         28.1424    3.9928   -9.3008 C.3       8 UNK         0.0235 
     51 CB         27.9502    5.4044   -9.8949 C.3       8 UNK        -0.2000 
     52 C          29.1339    3.1295  -10.1070 C.2       8 UNK         0.4941 
     53 O          30.0312    3.6708  -10.7557 O.2       8 UNK        -0.5273 
     54 N          28.9582    1.8031  -10.0458 N.am      9 UNK        -0.4262 
     55 CA         29.8216    0.8140  -10.6852 C.3       9 UNK         0.0264 
     56 CB         28.9936   -0.4342  -11.0360 C.3       9 UNK        -0.1955 
     57 C          30.9928    0.4532   -9.7640 C.2       9 UNK         0.5031 
     58 O          32.1370    0.4278  -10.2202 O.2       9 UNK        -0.5390 
     59 N          30.6710    0.2067   -8.4847 N.am      10 UNK        -0.4204 
     60 CA         31.5657   -0.1733   -7.3902 C.3       10 UNK         0.0237 
     61 CB         32.3244    1.0703   -6.8745 C.3       10 UNK        -0.1985 
     62 C          32.4665   -1.3809   -7.7354 C.2       10 UNK         0.4970 
     63 O          31.9741   -2.3562   -8.3059 O.2       10 UNK        -0.4914 
     64 N          33.7467   -1.3071   -7.3604 N.am      11 UNK        -0.4285 
     65 CA         34.7756   -2.3372   -7.5732 C.3       11 UNK         0.1007 
     66 C          36.2182   -1.7528   -7.6225 C.2       11 UNK         0.5703 
     67 N          36.3996   -0.4492   -7.8091 N.am      11 UNK        -0.7361 
     68 O          37.1969   -2.4882   -7.5149 O.2       11 UNK        -0.4986 
     69 C69        34.6197   -3.5629   -6.6232 C.3       12 UNK        -0.0947 
     70 S70        34.4111   -3.1122   -4.8643 S.3       12 UNK        -0.2240 
     71 C71        32.6767   -3.5976   -4.6211 C.3       12 UNK         0.0194 
     72 H72        29.9352   -4.7492   -5.3453 H         1 UNK         0.0906 
     73 H73        30.5515   -5.9011   -4.1495 H         1 UNK         0.0906 
     74 H74        29.4490   -6.4443   -5.4118 H         1 UNK         0.0906 
     75 H75        29.6599   -4.1728   -2.6022 H         1 UNK         0.3140 
     76 H76        27.0506   -4.9846   -1.6297 H         1 UNK         0.1085 
     77 H77        27.5617   -3.8320    0.3656 H         1 UNK         0.0836 
     78 H78        28.6235   -2.6984   -0.3857 H         1 UNK         0.0836 
     79 H79        32.0343   -4.0810    0.4745 H         1 UNK         0.0731 
     80 H80        30.9186   -2.8447    0.9947 H         1 UNK         0.0731 
     81 H81        32.3073   -4.5123   -2.0685 H         1 UNK         0.1312 
     82 H82        31.6147   -1.1072   -4.5761 H         1 UNK         0.1406 
     83 H83        30.3535   -1.0330   -0.4881 H         1 UNK         0.1631 
     84 H84        30.4678    0.8064   -3.7866 H         1 UNK         0.0717 
     85 H85        30.7563    1.1864   -2.0991 H         1 UNK         0.0717 
     86 H86        26.8503    2.0008   -2.9161 H         1 UNK         0.0934 
     87 H87        28.4287    2.6977   -3.1284 H         1 UNK         0.0934 
     88 H88        28.6771    1.9179   -5.3350 H         1 UNK         0.0739 
     89 H89        27.1491   -0.3884   -4.6233 H         1 UNK         0.3093 
     90 H90        26.8618   -1.6953   -7.9257 H         1 UNK         0.0818 
     91 H91        29.1531   -2.3615   -7.3006 H         1 UNK         0.0819 
     92 H92        28.7008   -2.5100   -5.6085 H         1 UNK         0.0819 
     93 H93        28.0315   -3.6181   -6.8062 H         1 UNK         0.0819 
     94 H94        26.1931   -2.5626   -5.2270 H         1 UNK         0.3041 
     95 H95        22.8512   -1.2927   -5.3227 H         1 UNK         0.0784 
     96 H96        22.7224   -3.3604   -6.7265 H         1 UNK         0.0793 
     97 H97        23.8428   -4.1779   -5.6454 H         1 UNK         0.0793 
     98 H98        22.2511   -3.6829   -5.0666 H         1 UNK         0.0793 
     99 H99        24.1354   -3.0033   -3.4543 H         1 UNK         0.3024 
    100 H100       25.7599   -0.5151   -1.5182 H         1 UNK         0.1171 
    101 H101       24.2786   -1.3441    0.2691 H         1 UNK         0.0786 
    102 H102       23.3469   -0.3654   -0.8495 H         1 UNK         0.0786 
    103 H103       23.2199   -2.1181   -0.9112 H         1 UNK         0.0786 
    104 H104       25.6285   -3.1010   -0.7570 H         1 UNK         0.2977 
    105 H105       25.1605    1.3838   -4.7956 H         1 UNK         0.3127 
    106 H106       24.2694    3.9867   -5.3820 H         1 UNK         0.0770 
    107 H107       22.8180    1.3002   -5.6645 H         1 UNK         0.0814 
    108 H108       22.0361    2.8759   -5.6292 H         1 UNK         0.0814 
    109 H109       22.8907    2.2927   -4.2098 H         1 UNK         0.0814 
    110 H110       24.8166    1.2256   -7.5919 H         1 UNK         0.2983 
    111 H111       23.8565    2.5522   -9.9648 H         1 UNK         0.0947 
    112 H112       24.9854    0.6286  -11.1095 H         1 UNK         0.0806 
    113 H113       23.9957    0.0765   -9.7697 H         1 UNK         0.0806 
    114 H114       25.7478    0.1623   -9.5946 H         1 UNK         0.0806 
    115 H115       26.6553    3.1025   -8.1098 H         1 UNK         0.3000 
    116 H116       28.5898    4.1117   -8.3129 H         1 UNK         0.0850 
    117 H117       28.8924    5.9534   -9.9107 H         1 UNK         0.0810 
    118 H118       27.2457    5.9898   -9.3039 H         1 UNK         0.0810 
    119 H119       27.5804    5.3672  -10.9199 H         1 UNK         0.0810 
    120 H120       28.2420    1.4495   -9.4216 H         1 UNK         0.3040 
    121 H121       30.2270    1.2264  -11.6119 H         1 UNK         0.0766 
    122 H122       28.1883   -0.1906  -11.7294 H         1 UNK         0.0812 
    123 H123       28.5456   -0.8905  -10.1522 H         1 UNK         0.0812 
    124 H124       29.6159   -1.1917  -11.5145 H         1 UNK         0.0812 
    125 H125       29.6881    0.2785   -8.2294 H         1 UNK         0.3205 
    126 H126       30.9048   -0.5121   -6.5932 H         1 UNK         0.0754 
    127 H127       32.8815    0.8547   -5.9619 H         1 UNK         0.0769 
    128 H128       31.6299    1.8754   -6.6327 H         1 UNK         0.0769 
    129 H129       33.0242    1.4557   -7.6173 H         1 UNK         0.0769 
    130 H130       34.0630   -0.4853   -6.8676 H         1 UNK         0.2981 
    131 H131       34.6306   -2.7128   -8.5877 H         1 UNK         0.0541 
    132 H132       35.6275    0.1692   -7.9946 H         1 UNK         0.3459 
    133 H133       37.3421   -0.0931   -7.8433 H         1 UNK         0.3459 
    134 H134       33.7631   -4.1557   -6.9462 H         1 UNK         0.0612 
    135 H135       35.4700   -4.2414   -6.7069 H         1 UNK         0.0612 
    136 H136       32.6319   -4.6784   -4.4832 H         1 UNK         0.0624 
    137 H137       32.0972   -3.3772   -5.5184 H         1 UNK         0.0624 
@<TRIPOS>BOND
     1    1    2 1    
     2    1   72 1    
     3    1   73 1    
     4    1   74 1    
     5    2    3 2    
     6    2    4 am   BACKBONE|DICT|INTERRES
     7    4    5 1    
     8    4   75 1    
     9    5    6 1    
    10    5   35 1    
    11    5   76 1    
    12    6    7 1    
    13    6   77 1    
    14    6   78 1    
    15    7    8 1    
    16    8    9 1    
    17    8   79 1    
    18    8   80 1    
    19    9   10 ar   
    20    9   14 ar   
    21   10   11 ar   
    22   10   81 1    
    23   11   12 ar   
    24   11   71 1    
    25   12   13 ar   
    26   12   82 1    
    27   13   14 ar   
    28   13   15 1    
    29   14   83 1    
    30   15   16 1    
    31   15   84 1    
    32   15   85 1    
    33   16   17 1    
    34   17   18 1    
    35   17   86 1    
    36   17   87 1    
    37   18   19 1    
    38   18   37 1    
    39   18   88 1    
    40   19   20 am   BACKBONE|DICT|INTERRES
    41   19   89 1    
    42   20   21 2    
    43   20   22 1    
    44   22   23 1    
    45   22   24 1    
    46   22   90 1    
    47   23   91 1    
    48   23   92 1    
    49   23   93 1    
    50   24   25 am   BACKBONE|DICT|INTERRES
    51   24   94 1    
    52   25   26 2    
    53   25   27 1    
    54   27   28 1    
    55   27   29 1    
    56   27   95 1    
    57   28   96 1    
    58   28   97 1    
    59   28   98 1    
    60   29   30 am   BACKBONE|DICT|INTERRES
    61   29   99 1    
    62   30   31 2    
    63   30   32 1    
    64   32   33 1    
    65   32   34 1    
    66   32  100 1    
    67   33  101 1    
    68   33  102 1    
    69   33  103 1    
    70   34   35 am   BACKBONE|DICT|INTERRES
    71   34  104 1    
    72   35   36 2    
    73   37   38 2    
    74   37   39 am   BACKBONE|DICT|INTERRES
    75   39   40 1    
    76   39  105 1    
    77   40   41 1    
    78   40   42 1    
    79   40  106 1    
    80   41  107 1    
    81   41  108 1    
    82   41  109 1    
    83   42   43 2    
    84   42   44 am   BACKBONE|DICT|INTERRES
    85   44   45 1    
    86   44  110 1    
    87   45   46 1    
    88   45   47 1    
    89   45  111 1    
    90   46  112 1    
    91   46  113 1    
    92   46  114 1    
    93   47   48 2    
    94   47   49 am   BACKBONE|DICT|INTERRES
    95   49   50 1    
    96   49  115 1    
    97   50   51 1    
    98   50   52 1    
    99   50  116 1    
   100   51  117 1    
   101   51  118 1    
   102   51  119 1    
   103   52   53 2    
   104   52   54 am   BACKBONE|DICT|INTERRES
   105   54   55 1    
   106   54  120 1    
   107   55   56 1    
   108   55   57 1    
   109   55  121 1    
   110   56  122 1    
   111   56  123 1    
   112   56  124 1    
   113   57   58 2    
   114   57   59 am   BACKBONE|DICT|INTERRES
   115   59   60 1    
   116   59  125 1    
   117   60   61 1    
   118   60   62 1    
   119   60  126 1    
   120   61  127 1    
   121   61  128 1    
   122   61  129 1    
   123   62   63 2    
   124   62   64 am   BACKBONE|DICT|INTERRES
   125   64   65 1    
   126   64  130 1    
   127   65   66 1    
   128   65   69 1    
   129   65  131 1    
   130   66   67 am   BACKBONE|DICT|INTERRES
   131   66   68 2    
   132   67  132 1    
   133   67  133 1    
   134   69   70 1    
   135   69  134 1    
   136   69  135 1    
   137   70   71 1    
   138   71  136 1    
   139   71  137 1    
@<TRIPOS>SUBSTRUCTURE
     1 UNK         1 GROUP             0       ****    0 ROOT    
