@<TRIPOS>MOLECULE
3R137
137   139    1
SMALL
USER_CHARGES


@<TRIPOS>ATOM
      1 CA         29.0701   -7.7970   -3.7910 C.3       0 UNK        -0.2020 
      2 C          27.8165   -7.1804   -3.1887 C.2       0 UNK         0.4855 
      3 O          26.8737   -7.9027   -2.8645 O.2       0 UNK        -0.5197 
      4 N          27.7997   -5.8497   -3.0365 N.am      1 UNK        -0.4892 
      5 CA         26.6727   -5.0851   -2.4840 C.3       1 UNK         0.0835 
      6 C6         27.1181   -3.6785   -2.0098 C.3       12 UNK        -0.0855 
      7 S7         27.9929   -3.7565   -0.4095 S.3       12 UNK        -0.2931 
      8 C8         29.7468   -3.8853   -0.8930 C.3       12 UNK         0.0378 
      9 C9         30.2791   -2.6211   -1.5552 C.ar      12 UNK        -0.0802 
     10 C10        30.8393   -2.6762   -2.8356 C.ar      12 UNK        -0.0944 
     11 C11        31.3634   -1.5264   -3.4360 C.ar      12 UNK        -0.0787 
     12 C12        31.3234   -0.3139   -2.7384 C.ar      12 UNK        -0.0862 
     13 C13        30.7461   -0.2407   -1.4675 C.ar      12 UNK        -0.0733 
     14 C14        30.2374   -1.3997   -0.8764 C.ar      12 UNK        -0.0832 
     15 C15        30.6537    1.0899   -0.7362 C.3       12 UNK         0.0240 
     16 S16        29.0424    1.8929   -1.0208 S.3       12 UNK        -0.2522 
     17 C17        29.2299    2.5175   -2.7250 C.3       12 UNK        -0.0967 
     18 CA         28.6119    1.5615   -3.7839 C.3       5 UNK         0.0660 
     19 N          27.1679    1.3742   -3.6265 N.am      5 UNK        -0.4015 
     20 C          26.1863    2.2455   -3.8819 C.2       4 UNK         0.4946 
     21 O          26.3591    3.3447   -4.4143 O.2       4 UNK        -0.5353 
     22 CA         24.7682    1.8000   -3.4676 C.3       4 UNK         0.0277 
     23 CB         23.7922    2.9888   -3.3843 C.3       4 UNK        -0.1981 
     24 N          24.1934    0.7831   -4.3536 N.am      4 UNK        -0.4209 
     25 C          24.6237   -0.4767   -4.5016 C.2       3 UNK         0.4942 
     26 O          25.5899   -0.9513   -3.8949 O.2       3 UNK        -0.5208 
     27 CA         23.8332   -1.3559   -5.4818 C.3       3 UNK         0.0250 
     28 CB         23.7652   -0.7480   -6.8975 C.3       3 UNK        -0.1990 
     29 N          24.4647   -2.6700   -5.5224 N.am      3 UNK        -0.4232 
     30 C          23.9218   -3.8029   -5.9783 C.2       2 UNK         0.4993 
     31 O          22.7983   -3.8741   -6.4782 O.2       2 UNK        -0.5286 
     32 CA         24.7717   -5.0815   -5.8575 C.3       2 UNK         0.0209 
     33 CB         25.4834   -5.3766   -7.1884 C.3       2 UNK        -0.1931 
     34 N          25.7682   -5.0541   -4.7790 N.am      2 UNK        -0.4546 
     35 C          25.4859   -4.9998   -3.4677 C.2       1 UNK         0.5154 
     36 O          24.3410   -4.9110   -3.0218 O.2       1 UNK        -0.5181 
     37 C          28.9872    1.9336   -5.2305 C.2       5 UNK         0.5014 
     38 O          29.0592    1.0453   -6.0794 O.2       5 UNK        -0.5248 
     39 N          29.1934    3.2311   -5.5018 N.am      6 UNK        -0.4434 
     40 CA         29.4965    3.7752   -6.8288 C.3       6 UNK         0.0363 
     41 CB         29.7697    5.2825   -6.7149 C.3       6 UNK        -0.1936 
     42 C          28.4021    3.4988   -7.8746 C.2       6 UNK         0.5081 
     43 O          28.7174    3.3757   -9.0580 O.2       6 UNK        -0.5248 
     44 N          27.1485    3.3376   -7.4238 N.am      7 UNK        -0.4718 
     45 CA         26.0152    2.9220   -8.2556 C.3       7 UNK         0.0273 
     46 CB         24.7173    3.0495   -7.4442 C.3       7 UNK        -0.1935 
     47 C          26.1543    1.4991   -8.8331 C.2       7 UNK         0.5018 
     48 O          25.4962    1.1975   -9.8286 O.2       7 UNK        -0.5186 
     49 N          27.0074    0.6574   -8.2263 N.am      8 UNK        -0.4240 
     50 CA         27.3381   -0.6820   -8.7199 C.3       8 UNK         0.0235 
     51 CB         27.7370   -1.5807   -7.5344 C.3       8 UNK        -0.2000 
     52 C          28.4475   -0.6662   -9.7889 C.2       8 UNK         0.4941 
     53 O          28.7868   -1.7342  -10.2980 O.2       8 UNK        -0.5273 
     54 N          29.0272    0.5091  -10.0891 N.am      9 UNK        -0.4262 
     55 CA         30.0697    0.8019  -11.0882 C.3       9 UNK         0.0264 
     56 CB         29.5826    0.4649  -12.5113 C.3       9 UNK        -0.1955 
     57 C          31.4560    0.1814  -10.8199 C.2       9 UNK         0.5031 
     58 O          32.4526    0.7270  -11.2953 O.2       9 UNK        -0.5390 
     59 N          31.5120   -0.9252  -10.0688 N.am      10 UNK        -0.4204 
     60 CA         32.7305   -1.6320   -9.6648 C.3       10 UNK         0.0237 
     61 CB         32.3370   -2.9652   -9.0071 C.3       10 UNK        -0.1985 
     62 C          33.6418   -0.8239   -8.7225 C.2       10 UNK         0.4970 
     63 O          34.8497   -1.0656   -8.7122 O.2       10 UNK        -0.4914 
     64 N          33.0531    0.1010   -7.9563 N.am      11 UNK        -0.4285 
     65 CA         33.7403    1.0079   -7.0274 C.3       11 UNK         0.1007 
     66 C          33.5706    2.4851   -7.4704 C.2       11 UNK         0.5703 
     67 N          34.3753    3.3890   -6.9282 N.am      11 UNK        -0.7361 
     68 O          32.7143    2.8273   -8.2836 O.2       11 UNK        -0.4986 
     69 C69        33.2566    0.7973   -5.5679 C.3       12 UNK        -0.0947 
     70 S70        33.6138   -0.8896   -4.9643 S.3       12 UNK        -0.2240 
     71 C71        31.9411   -1.6036   -4.8461 C.3       12 UNK         0.0194 
     72 H72        29.5059   -8.5141   -3.0958 H         1 UNK         0.0906 
     73 H73        28.8234   -8.3232   -4.7128 H         1 UNK         0.0906 
     74 H74        29.8261   -7.0465   -4.0209 H         1 UNK         0.0906 
     75 H75        28.6036   -5.3082   -3.3177 H         1 UNK         0.3140 
     76 H76        26.2930   -5.6305   -1.6163 H         1 UNK         0.1085 
     77 H77        26.2531   -3.0296   -1.8544 H         1 UNK         0.0836 
     78 H78        27.7308   -3.1757   -2.7602 H         1 UNK         0.0836 
     79 H79        30.3374   -4.0788    0.0035 H         1 UNK         0.0731 
     80 H80        29.8842   -4.7558   -1.5347 H         1 UNK         0.0731 
     81 H81        30.8721   -3.6181   -3.3657 H         1 UNK         0.1312 
     82 H82        31.7196    0.5818   -3.1935 H         1 UNK         0.1406 
     83 H83        29.7946   -1.3501    0.1095 H         1 UNK         0.1631 
     84 H84        31.4637    1.7562   -1.0367 H         1 UNK         0.0717 
     85 H85        30.7791    0.9277    0.3354 H         1 UNK         0.0717 
     86 H86        28.7548    3.4992   -2.7662 H         1 UNK         0.0934 
     87 H87        30.2905    2.6859   -2.9214 H         1 UNK         0.0934 
     88 H88        29.0278    0.5679   -3.6297 H         1 UNK         0.0739 
     89 H89        26.8810    0.4486   -3.3234 H         1 UNK         0.3093 
     90 H90        24.8458    1.3684   -2.4672 H         1 UNK         0.0818 
     91 H91        22.8229    2.6819   -2.9911 H         1 UNK         0.0819 
     92 H92        24.1777    3.7634   -2.7199 H         1 UNK         0.0819 
     93 H93        23.6295    3.4499   -4.3594 H         1 UNK         0.0819 
     94 H94        23.3899    1.0752   -4.8903 H         1 UNK         0.3041 
     95 H95        22.8223   -1.4669   -5.0840 H         1 UNK         0.0784 
     96 H96        23.2932    0.2344   -6.8977 H         1 UNK         0.0793 
     97 H97        24.7575   -0.6386   -7.3280 H         1 UNK         0.0793 
     98 H98        23.1828   -1.3742   -7.5732 H         1 UNK         0.0793 
     99 H99        25.3650   -2.7023   -5.0596 H         1 UNK         0.3024 
    100 H100       24.0816   -5.9020   -5.6476 H         1 UNK         0.1171 
    101 H101       24.7674   -5.4345   -8.0096 H         1 UNK         0.0786 
    102 H102       26.0111   -6.3300   -7.1548 H         1 UNK         0.0786 
    103 H103       26.2056   -4.5995   -7.4412 H         1 UNK         0.0786 
    104 H104       26.7360   -5.1468   -5.0505 H         1 UNK         0.2977 
    105 H105       29.0467    3.9038   -4.7633 H         1 UNK         0.3127 
    106 H106       30.4055    3.2859   -7.1798 H         1 UNK         0.0770 
    107 H107       28.9000    5.8239   -6.3406 H         1 UNK         0.0814 
    108 H108       30.0240    5.7055   -7.6879 H         1 UNK         0.0814 
    109 H109       30.6079    5.4850   -6.0479 H         1 UNK         0.0814 
    110 H110       26.9717    3.4454   -6.4294 H         1 UNK         0.2983 
    111 H111       25.9573    3.6082   -9.1034 H         1 UNK         0.0947 
    112 H112       23.8478    2.7987   -8.0534 H         1 UNK         0.0806 
    113 H113       24.5746    4.0661   -7.0772 H         1 UNK         0.0806 
    114 H114       24.7181    2.3808   -6.5853 H         1 UNK         0.0806 
    115 H115       27.5430    0.9810   -7.4261 H         1 UNK         0.3000 
    116 H116       26.4507   -1.1172   -9.1845 H         1 UNK         0.0850 
    117 H117       27.8281   -2.6205   -7.8505 H         1 UNK         0.0810 
    118 H118       28.6982   -1.2912   -7.1095 H         1 UNK         0.0810 
    119 H119       26.9959   -1.5487   -6.7362 H         1 UNK         0.0810 
    120 H120       28.7061    1.3288   -9.5845 H         1 UNK         0.3040 
    121 H121       30.2133    1.8827  -11.0403 H         1 UNK         0.0766 
    122 H122       28.6421    0.9672  -12.7376 H         1 UNK         0.0812 
    123 H123       29.4334   -0.6064  -12.6489 H         1 UNK         0.0812 
    124 H124       30.3096    0.7877  -13.2579 H         1 UNK         0.0812 
    125 H125       30.6230   -1.3546   -9.8295 H         1 UNK         0.3205 
    126 H126       33.3037   -1.8484  -10.5686 H         1 UNK         0.0754 
    127 H127       33.2214   -3.5354   -8.7191 H         1 UNK         0.0769 
    128 H128       31.7584   -3.5891   -9.6889 H         1 UNK         0.0769 
    129 H129       31.7415   -2.8100   -8.1063 H         1 UNK         0.0769 
    130 H130       32.0680    0.2777   -8.0838 H         1 UNK         0.2981 
    131 H131       34.8132    0.8092   -7.0560 H         1 UNK         0.0541 
    132 H132       34.2778    4.3543   -7.2010 H         1 UNK         0.3459 
    133 H133       35.0836    3.1266   -6.2606 H         1 UNK         0.3459 
    134 H134       32.1899    1.0127   -5.4854 H         1 UNK         0.0612 
    135 H135       33.7586    1.4921   -4.8925 H         1 UNK         0.0612 
    136 H136       32.0051   -2.6430   -5.1712 H         1 UNK         0.0624 
    137 H137       31.2638   -1.1118   -5.5458 H         1 UNK         0.0624 
@<TRIPOS>BOND
     1    1    2 1    
     2    1   72 1    
     3    1   73 1    
     4    1   74 1    
     5    2    3 2    
     6    2    4 am   BACKBONE|DICT|INTERRES
     7    4    5 1    
     8    4   75 1    
     9    5    6 1    
    10    5   35 1    
    11    5   76 1    
    12    6    7 1    
    13    6   77 1    
    14    6   78 1    
    15    7    8 1    
    16    8    9 1    
    17    8   79 1    
    18    8   80 1    
    19    9   10 ar   
    20    9   14 ar   
    21   10   11 ar   
    22   10   81 1    
    23   11   12 ar   
    24   11   71 1    
    25   12   13 ar   
    26   12   82 1    
    27   13   14 ar   
    28   13   15 1    
    29   14   83 1    
    30   15   16 1    
    31   15   84 1    
    32   15   85 1    
    33   16   17 1    
    34   17   18 1    
    35   17   86 1    
    36   17   87 1    
    37   18   19 1    
    38   18   37 1    
    39   18   88 1    
    40   19   20 am   BACKBONE|DICT|INTERRES
    41   19   89 1    
    42   20   21 2    
    43   20   22 1    
    44   22   23 1    
    45   22   24 1    
    46   22   90 1    
    47   23   91 1    
    48   23   92 1    
    49   23   93 1    
    50   24   25 am   BACKBONE|DICT|INTERRES
    51   24   94 1    
    52   25   26 2    
    53   25   27 1    
    54   27   28 1    
    55   27   29 1    
    56   27   95 1    
    57   28   96 1    
    58   28   97 1    
    59   28   98 1    
    60   29   30 am   BACKBONE|DICT|INTERRES
    61   29   99 1    
    62   30   31 2    
    63   30   32 1    
    64   32   33 1    
    65   32   34 1    
    66   32  100 1    
    67   33  101 1    
    68   33  102 1    
    69   33  103 1    
    70   34   35 am   BACKBONE|DICT|INTERRES
    71   34  104 1    
    72   35   36 2    
    73   37   38 2    
    74   37   39 am   BACKBONE|DICT|INTERRES
    75   39   40 1    
    76   39  105 1    
    77   40   41 1    
    78   40   42 1    
    79   40  106 1    
    80   41  107 1    
    81   41  108 1    
    82   41  109 1    
    83   42   43 2    
    84   42   44 am   BACKBONE|DICT|INTERRES
    85   44   45 1    
    86   44  110 1    
    87   45   46 1    
    88   45   47 1    
    89   45  111 1    
    90   46  112 1    
    91   46  113 1    
    92   46  114 1    
    93   47   48 2    
    94   47   49 am   BACKBONE|DICT|INTERRES
    95   49   50 1    
    96   49  115 1    
    97   50   51 1    
    98   50   52 1    
    99   50  116 1    
   100   51  117 1    
   101   51  118 1    
   102   51  119 1    
   103   52   53 2    
   104   52   54 am   BACKBONE|DICT|INTERRES
   105   54   55 1    
   106   54  120 1    
   107   55   56 1    
   108   55   57 1    
   109   55  121 1    
   110   56  122 1    
   111   56  123 1    
   112   56  124 1    
   113   57   58 2    
   114   57   59 am   BACKBONE|DICT|INTERRES
   115   59   60 1    
   116   59  125 1    
   117   60   61 1    
   118   60   62 1    
   119   60  126 1    
   120   61  127 1    
   121   61  128 1    
   122   61  129 1    
   123   62   63 2    
   124   62   64 am   BACKBONE|DICT|INTERRES
   125   64   65 1    
   126   64  130 1    
   127   65   66 1    
   128   65   69 1    
   129   65  131 1    
   130   66   67 am   BACKBONE|DICT|INTERRES
   131   66   68 2    
   132   67  132 1    
   133   67  133 1    
   134   69   70 1    
   135   69  134 1    
   136   69  135 1    
   137   70   71 1    
   138   71  136 1    
   139   71  137 1    
@<TRIPOS>SUBSTRUCTURE
     1 UNK         1 GROUP             0       ****    0 ROOT    
