@<TRIPOS>MOLECULE
3R137
137   139    1
SMALL
USER_CHARGES


@<TRIPOS>ATOM
      1 CA         26.6337    0.0078    2.2573 C.3       0 UNK        -0.2020 
      2 C          27.1270   -0.3823    0.8723 C.2       0 UNK         0.4855 
      3 O          27.1378    0.4524   -0.0305 O.2       0 UNK        -0.5197 
      4 N          27.5223   -1.6494    0.6942 N.am      1 UNK        -0.4892 
      5 CA         28.0786   -2.1975   -0.5536 C.3       1 UNK         0.0835 
      6 C6         29.0095   -3.4059   -0.2753 C.3       12 UNK        -0.0855 
      7 S7         30.4633   -2.9058    0.7140 S.3       12 UNK        -0.2931 
      8 C8         31.8625   -3.2390   -0.4117 C.3       12 UNK         0.0378 
      9 C9         31.7384   -2.5446   -1.7643 C.ar      12 UNK        -0.0802 
     10 C10        31.7584   -3.3037   -2.9402 C.ar      12 UNK        -0.0944 
     11 C11        31.6450   -2.6874   -4.1897 C.ar      12 UNK        -0.0787 
     12 C12        31.4995   -1.2998   -4.2544 C.ar      12 UNK        -0.0862 
     13 C13        31.4786   -0.5278   -3.0905 C.ar      12 UNK        -0.0733 
     14 C14        31.6125   -1.1528   -1.8467 C.ar      12 UNK        -0.0832 
     15 C15        31.2860    0.9784   -3.1916 C.3       12 UNK         0.0240 
     16 S16        29.6203    1.5365   -2.6924 S.3       12 UNK        -0.2522 
     17 C17        28.4909    0.2619   -3.3559 C.3       12 UNK        -0.0967 
     18 CA         28.3449    0.2384   -4.8911 C.3       5 UNK         0.0660 
     19 N          27.7387   -1.0144   -5.3368 N.am      5 UNK        -0.4015 
     20 C          27.9691   -1.6053   -6.5169 C.2       4 UNK         0.4946 
     21 O          28.7952   -1.2039   -7.3393 O.2       4 UNK        -0.5353 
     22 CA         27.1110   -2.8448   -6.8468 C.3       4 UNK         0.0277 
     23 CB         27.7733   -4.1368   -6.3386 C.3       4 UNK        -0.1981 
     24 N          25.7643   -2.7800   -6.2777 N.am      4 UNK        -0.4209 
     25 C          24.8290   -1.8704   -6.5806 C.2       3 UNK         0.4942 
     26 O          24.9759   -0.9879   -7.4239 O.2       3 UNK        -0.5208 
     27 CA         23.5252   -1.9291   -5.7653 C.3       3 UNK         0.0250 
     28 CB         22.4810   -2.7939   -6.4886 C.3       3 UNK        -0.1990 
     29 N          23.7010   -2.4205   -4.3936 N.am      3 UNK        -0.4232 
     30 C          24.5008   -1.8786   -3.4624 C.2       2 UNK         0.4993 
     31 O          25.1935   -0.8760   -3.6662 O.2       2 UNK        -0.5286 
     32 CA         24.5164   -2.5777   -2.0845 C.3       2 UNK         0.0209 
     33 CB         24.2993   -4.1064   -2.1765 C.3       2 UNK        -0.1931 
     34 N          25.7181   -2.2960   -1.2883 N.am      2 UNK        -0.4546 
     35 C          26.9979   -2.5420   -1.6103 C.2       1 UNK         0.5154 
     36 O          27.3438   -3.0307   -2.6878 O.2       1 UNK        -0.5181 
     37 C          27.5563    1.4435   -5.4266 C.2       5 UNK         0.5014 
     38 O          28.1729    2.3907   -5.9176 O.2       5 UNK        -0.5248 
     39 N          26.2152    1.3770   -5.3624 N.am      6 UNK        -0.4434 
     40 CA         25.3050    2.4197   -5.8556 C.3       6 UNK         0.0363 
     41 CB         23.8495    2.0334   -5.5564 C.3       6 UNK        -0.1936 
     42 C          25.4808    2.7313   -7.3531 C.2       6 UNK         0.5081 
     43 O          25.3684    3.8932   -7.7468 O.2       6 UNK        -0.5248 
     44 N          25.8174    1.7096   -8.1522 N.am      7 UNK        -0.4718 
     45 CA         26.2378    1.8089   -9.5519 C.3       7 UNK         0.0273 
     46 CB         26.1279    0.4146  -10.1973 C.3       7 UNK        -0.1935 
     47 C          27.6526    2.4112   -9.7001 C.2       7 UNK         0.5018 
     48 O          28.5415    1.7642  -10.2559 O.2       7 UNK        -0.5186 
     49 N          27.8394    3.6339   -9.1805 N.am      8 UNK        -0.4240 
     50 CA         29.0368    4.4842   -9.2583 C.3       8 UNK         0.0235 
     51 CB         29.1483    5.0865  -10.6749 C.3       8 UNK        -0.2000 
     52 C          30.3476    3.8009   -8.8107 C.2       8 UNK         0.4941 
     53 O          31.4095    4.1109   -9.3544 O.2       8 UNK        -0.5273 
     54 N          30.2491    2.8687   -7.8502 N.am      9 UNK        -0.4262 
     55 CA         31.3157    1.9935   -7.3498 C.3       9 UNK         0.0264 
     56 CB         32.3476    2.8054   -6.5380 C.3       9 UNK        -0.1955 
     57 C          31.9713    1.1040   -8.4293 C.2       9 UNK         0.5031 
     58 O          33.1286    0.7137   -8.2636 O.2       9 UNK        -0.5390 
     59 N          31.2423    0.7934   -9.5133 N.am      10 UNK        -0.4204 
     60 CA         31.7404   -0.0204  -10.6265 C.3       10 UNK         0.0237 
     61 CB         30.8473    0.1940  -11.8591 C.3       10 UNK        -0.1985 
     62 C          31.8419   -1.5188  -10.2955 C.2       10 UNK         0.4970 
     63 O          32.6433   -2.2111  -10.9246 O.2       10 UNK        -0.4914 
     64 N          31.0261   -1.9925   -9.3435 N.am      11 UNK        -0.4285 
     65 CA         30.9336   -3.3934   -8.9004 C.3       11 UNK         0.1007 
     66 C          30.3871   -4.3886   -9.9695 C.2       11 UNK         0.5703 
     67 N          29.7324   -3.9262  -11.0284 N.am      11 UNK        -0.7361 
     68 O          30.5223   -5.6011   -9.8238 O.2       11 UNK        -0.4986 
     69 C69        32.2139   -3.9118   -8.1792 C.3       12 UNK        -0.0947 
     70 S70        32.7140   -2.8703   -6.7679 S.3       12 UNK        -0.2240 
     71 C71        31.6224   -3.5250   -5.4623 C.3       12 UNK         0.0194 
     72 H72        27.2503    0.8103    2.6613 H         1 UNK         0.0906 
     73 H73        25.6049    0.3630    2.2038 H         1 UNK         0.0906 
     74 H74        26.6682   -0.8292    2.9546 H         1 UNK         0.0906 
     75 H75        27.4970   -2.2911    1.4747 H         1 UNK         0.3140 
     76 H76        28.6986   -1.4179   -0.9950 H         1 UNK         0.1085 
     77 H77        28.4722   -4.1910    0.2597 H         1 UNK         0.0836 
     78 H78        29.3527   -3.8607   -1.2064 H         1 UNK         0.0836 
     79 H79        31.9537   -4.3190   -0.5378 H         1 UNK         0.0731 
     80 H80        32.7850   -2.9102    0.0687 H         1 UNK         0.0731 
     81 H81        31.8544   -4.3795   -2.8827 H         1 UNK         0.1312 
     82 H82        31.3932   -0.8240   -5.2193 H         1 UNK         0.1406 
     83 H83        31.5913   -0.5598   -0.9421 H         1 UNK         0.1631 
     84 H84        31.4701    1.3161   -4.2112 H         1 UNK         0.0717 
     85 H85        32.0276    1.4823   -2.5704 H         1 UNK         0.0717 
     86 H86        28.8614   -0.7083   -3.0348 H         1 UNK         0.0934 
     87 H87        27.5192    0.3776   -2.8712 H         1 UNK         0.0934 
     88 H88        29.3443    0.2922   -5.3187 H         1 UNK         0.0739 
     89 H89        27.0330   -1.4079   -4.7248 H         1 UNK         0.3093 
     90 H90        27.0113   -2.9035   -7.9327 H         1 UNK         0.0818 
     91 H91        28.0041   -4.0817   -5.2733 H         1 UNK         0.0819 
     92 H92        27.1285   -5.0020   -6.4946 H         1 UNK         0.0819 
     93 H93        28.6999   -4.3483   -6.8649 H         1 UNK         0.0819 
     94 H94        25.5462   -3.4574   -5.5616 H         1 UNK         0.3041 
     95 H95        23.1316   -0.9157   -5.6945 H         1 UNK         0.0784 
     96 H96        22.3133   -2.4336   -7.5048 H         1 UNK         0.0793 
     97 H97        22.7967   -3.8356   -6.5605 H         1 UNK         0.0793 
     98 H98        21.5190   -2.7680   -5.9763 H         1 UNK         0.0793 
     99 H99        23.1628   -3.2365   -4.1398 H         1 UNK         0.3024 
    100 H100       23.6795   -2.1531   -1.5276 H         1 UNK         0.1171 
    101 H101       24.3782   -4.5735   -1.1945 H         1 UNK         0.0786 
    102 H102       23.3083   -4.3539   -2.5579 H         1 UNK         0.0786 
    103 H103       25.0351   -4.5825   -2.8262 H         1 UNK         0.0786 
    104 H104       25.5580   -1.8437   -0.3995 H         1 UNK         0.2977 
    105 H105       25.7906    0.5736   -4.9075 H         1 UNK         0.3127 
    106 H106       25.5368    3.3306   -5.2998 H         1 UNK         0.0770 
    107 H107       23.5117    1.2246   -6.2028 H         1 UNK         0.0814 
    108 H108       23.1841    2.8797   -5.7313 H         1 UNK         0.0814 
    109 H109       23.7166    1.7230   -4.5197 H         1 UNK         0.0814 
    110 H110       25.8151    0.7745   -7.7541 H         1 UNK         0.2983 
    111 H111       25.5487    2.4760  -10.0740 H         1 UNK         0.0947 
    112 H112       26.4006    0.4464  -11.2529 H         1 UNK         0.0806 
    113 H113       25.1101    0.0288  -10.1370 H         1 UNK         0.0806 
    114 H114       26.7865   -0.3057   -9.7091 H         1 UNK         0.0806 
    115 H115       27.0455    4.0321   -8.6848 H         1 UNK         0.3000 
    116 H116       28.8736    5.3051   -8.5585 H         1 UNK         0.0850 
    117 H117       29.9512    5.8227  -10.7298 H         1 UNK         0.0810 
    118 H118       28.2282    5.5939  -10.9648 H         1 UNK         0.0810 
    119 H119       29.3573    4.3183  -11.4206 H         1 UNK         0.0810 
    120 H120       29.3393    2.7212   -7.4178 H         1 UNK         0.3040 
    121 H121       30.8324    1.3008   -6.6639 H         1 UNK         0.0766 
    122 H122       31.8633    3.3970   -5.7611 H         1 UNK         0.0812 
    123 H123       32.9156    3.4856   -7.1733 H         1 UNK         0.0812 
    124 H124       33.0650    2.1490   -6.0440 H         1 UNK         0.0812 
    125 H125       30.2997    1.1662   -9.6068 H         1 UNK         0.3205 
    126 H126       32.7451    0.3274  -10.8763 H         1 UNK         0.0754 
    127 H127       31.2348   -0.3489  -12.7224 H         1 UNK         0.0769 
    128 H128       30.7975    1.2480  -12.1339 H         1 UNK         0.0769 
    129 H129       29.8283   -0.1539  -11.6850 H         1 UNK         0.0769 
    130 H130       30.3894   -1.3571   -8.8776 H         1 UNK         0.2981 
    131 H131       30.1469   -3.3719   -8.1535 H         1 UNK         0.0541 
    132 H132       29.6009   -2.9364  -11.1568 H         1 UNK         0.3459 
    133 H133       29.3729   -4.5774  -11.7083 H         1 UNK         0.3459 
    134 H134       32.0679   -4.9282   -7.8095 H         1 UNK         0.0612 
    135 H135       33.0497   -3.9638   -8.8782 H         1 UNK         0.0612 
    136 H136       30.5979   -3.5441   -5.8282 H         1 UNK         0.0624 
    137 H137       31.9041   -4.5582   -5.2540 H         1 UNK         0.0624 
@<TRIPOS>BOND
     1    1    2 1    
     2    1   72 1    
     3    1   73 1    
     4    1   74 1    
     5    2    3 2    
     6    2    4 am   BACKBONE|DICT|INTERRES
     7    4    5 1    
     8    4   75 1    
     9    5    6 1    
    10    5   35 1    
    11    5   76 1    
    12    6    7 1    
    13    6   77 1    
    14    6   78 1    
    15    7    8 1    
    16    8    9 1    
    17    8   79 1    
    18    8   80 1    
    19    9   10 ar   
    20    9   14 ar   
    21   10   11 ar   
    22   10   81 1    
    23   11   12 ar   
    24   11   71 1    
    25   12   13 ar   
    26   12   82 1    
    27   13   14 ar   
    28   13   15 1    
    29   14   83 1    
    30   15   16 1    
    31   15   84 1    
    32   15   85 1    
    33   16   17 1    
    34   17   18 1    
    35   17   86 1    
    36   17   87 1    
    37   18   19 1    
    38   18   37 1    
    39   18   88 1    
    40   19   20 am   BACKBONE|DICT|INTERRES
    41   19   89 1    
    42   20   21 2    
    43   20   22 1    
    44   22   23 1    
    45   22   24 1    
    46   22   90 1    
    47   23   91 1    
    48   23   92 1    
    49   23   93 1    
    50   24   25 am   BACKBONE|DICT|INTERRES
    51   24   94 1    
    52   25   26 2    
    53   25   27 1    
    54   27   28 1    
    55   27   29 1    
    56   27   95 1    
    57   28   96 1    
    58   28   97 1    
    59   28   98 1    
    60   29   30 am   BACKBONE|DICT|INTERRES
    61   29   99 1    
    62   30   31 2    
    63   30   32 1    
    64   32   33 1    
    65   32   34 1    
    66   32  100 1    
    67   33  101 1    
    68   33  102 1    
    69   33  103 1    
    70   34   35 am   BACKBONE|DICT|INTERRES
    71   34  104 1    
    72   35   36 2    
    73   37   38 2    
    74   37   39 am   BACKBONE|DICT|INTERRES
    75   39   40 1    
    76   39  105 1    
    77   40   41 1    
    78   40   42 1    
    79   40  106 1    
    80   41  107 1    
    81   41  108 1    
    82   41  109 1    
    83   42   43 2    
    84   42   44 am   BACKBONE|DICT|INTERRES
    85   44   45 1    
    86   44  110 1    
    87   45   46 1    
    88   45   47 1    
    89   45  111 1    
    90   46  112 1    
    91   46  113 1    
    92   46  114 1    
    93   47   48 2    
    94   47   49 am   BACKBONE|DICT|INTERRES
    95   49   50 1    
    96   49  115 1    
    97   50   51 1    
    98   50   52 1    
    99   50  116 1    
   100   51  117 1    
   101   51  118 1    
   102   51  119 1    
   103   52   53 2    
   104   52   54 am   BACKBONE|DICT|INTERRES
   105   54   55 1    
   106   54  120 1    
   107   55   56 1    
   108   55   57 1    
   109   55  121 1    
   110   56  122 1    
   111   56  123 1    
   112   56  124 1    
   113   57   58 2    
   114   57   59 am   BACKBONE|DICT|INTERRES
   115   59   60 1    
   116   59  125 1    
   117   60   61 1    
   118   60   62 1    
   119   60  126 1    
   120   61  127 1    
   121   61  128 1    
   122   61  129 1    
   123   62   63 2    
   124   62   64 am   BACKBONE|DICT|INTERRES
   125   64   65 1    
   126   64  130 1    
   127   65   66 1    
   128   65   69 1    
   129   65  131 1    
   130   66   67 am   BACKBONE|DICT|INTERRES
   131   66   68 2    
   132   67  132 1    
   133   67  133 1    
   134   69   70 1    
   135   69  134 1    
   136   69  135 1    
   137   70   71 1    
   138   71  136 1    
   139   71  137 1    
@<TRIPOS>SUBSTRUCTURE
     1 UNK         1 GROUP             0       ****    0 ROOT    
