@<TRIPOS>MOLECULE
3R137
137   139    1
SMALL
USER_CHARGES


@<TRIPOS>ATOM
      1 CA         27.8544   -1.7989    3.8271 C.3       0 UNK        -0.2020 
      2 C          27.9935   -1.1986    2.4359 C.2       0 UNK         0.4855 
      3 O          28.2811   -0.0077    2.3089 O.2       0 UNK        -0.5197 
      4 N          27.8024   -2.0150    1.3926 N.am      1 UNK        -0.4892 
      5 CA         27.8489   -1.6000   -0.0140 C.3       1 UNK         0.0835 
      6 C6         27.9779   -2.8118   -0.9719 C.3       12 UNK        -0.0855 
      7 S7         29.4698   -3.8123   -0.6512 S.3       12 UNK        -0.2931 
      8 C8         30.6650   -3.0825   -1.8263 C.3       12 UNK         0.0378 
      9 C9         30.5338   -3.5112   -3.2916 C.ar      12 UNK        -0.0802 
     10 C10        31.5593   -3.1507   -4.1710 C.ar      12 UNK        -0.0944 
     11 C11        31.5162   -3.5042   -5.5267 C.ar      12 UNK        -0.0787 
     12 C12        30.4145   -4.2262   -6.0002 C.ar      12 UNK        -0.0862 
     13 C13        29.3849   -4.6090   -5.1351 C.ar      12 UNK        -0.0733 
     14 C14        29.4497   -4.2476   -3.7868 C.ar      12 UNK        -0.0832 
     15 C15        28.2282   -5.4687   -5.6267 C.3       12 UNK         0.0240 
     16 S16        26.6958   -4.5095   -5.8489 S.3       12 UNK        -0.2522 
     17 C17        26.6984   -4.1645   -7.6468 C.3       12 UNK        -0.0967 
     18 CA         26.4845   -2.6754   -8.0168 C.3       5 UNK         0.0660 
     19 N          25.2671   -2.1111   -7.4225 N.am      5 UNK        -0.4015 
     20 C          24.7744   -0.8858   -7.6466 C.2       4 UNK         0.4946 
     21 O          25.3140   -0.0605   -8.3833 O.2       4 UNK        -0.5353 
     22 CA         23.4807   -0.4876   -6.9137 C.3       4 UNK         0.0277 
     23 CB         22.2413   -1.0555   -7.6316 C.3       4 UNK        -0.1981 
     24 N          23.4684   -0.7977   -5.4762 N.am      4 UNK        -0.4209 
     25 C          23.4871   -1.9891   -4.8638 C.2       3 UNK         0.4942 
     26 O          23.5032   -3.0628   -5.4678 O.2       3 UNK        -0.5208 
     27 CA         23.5297   -1.9710   -3.3222 C.3       3 UNK         0.0250 
     28 CB         23.7087   -3.3792   -2.7229 C.3       3 UNK        -0.1990 
     29 N          24.5863   -1.1039   -2.7895 N.am      3 UNK        -0.4232 
     30 C          24.5495    0.2330   -2.7030 C.2       2 UNK         0.4993 
     31 O          23.6255    0.9045   -3.1647 O.2       2 UNK        -0.5286 
     32 CA         25.7429    0.9537   -2.0370 C.3       2 UNK         0.0209 
     33 CB         25.2690    2.0181   -1.0245 C.3       2 UNK        -0.1931 
     34 N          26.7581    0.0715   -1.4325 N.am      2 UNK        -0.4546 
     35 C          26.6086   -0.7631   -0.3913 C.2       1 UNK         0.5154 
     36 O          25.5439   -0.9338    0.2079 O.2       1 UNK        -0.5181 
     37 C          27.7401   -1.8318   -7.7349 C.2       5 UNK         0.5014 
     38 O          28.5232   -1.5909   -8.6534 O.2       5 UNK        -0.5248 
     39 N          27.8789   -1.3603   -6.4879 N.am      6 UNK        -0.4434 
     40 CA         28.9746   -0.4985   -6.0468 C.3       6 UNK         0.0363 
     41 CB         28.8970   -0.3012   -4.5260 C.3       6 UNK        -0.1936 
     42 C          28.9928    0.8591   -6.7679 C.2       6 UNK         0.5081 
     43 O          30.0667    1.3445   -7.1217 O.2       6 UNK        -0.5248 
     44 N          27.8037    1.4332   -6.9952 N.am      7 UNK        -0.4718 
     45 CA         27.6235    2.6826   -7.7334 C.3       7 UNK         0.0273 
     46 CB         26.2213    3.2519   -7.4622 C.3       7 UNK        -0.1935 
     47 C          27.8646    2.4924   -9.2379 C.2       7 UNK         0.5018 
     48 O          28.5786    3.2958   -9.8373 O.2       7 UNK        -0.5186 
     49 N          27.2986    1.4185   -9.8085 N.am      8 UNK        -0.4240 
     50 CA         27.4336    1.0457  -11.2196 C.3       8 UNK         0.0235 
     51 CB         26.5136   -0.1467  -11.5270 C.3       8 UNK        -0.2000 
     52 C          28.8820    0.7339  -11.6311 C.2       8 UNK         0.4941 
     53 O          29.3110    1.1644  -12.7022 O.2       8 UNK        -0.5273 
     54 N          29.6143    0.0156  -10.7690 N.am      9 UNK        -0.4262 
     55 CA         31.0298   -0.3103  -10.9577 C.3       9 UNK         0.0264 
     56 CB         31.3840   -1.5154  -10.0703 C.3       9 UNK        -0.1955 
     57 C          31.9827    0.8605  -10.6540 C.2       9 UNK         0.5031 
     58 O          33.1549    0.7699  -11.0220 O.2       9 UNK        -0.5390 
     59 N          31.4891    1.9042   -9.9656 N.am      10 UNK        -0.4204 
     60 CA         32.2466    3.0180   -9.3756 C.3       10 UNK         0.0237 
     61 CB         32.8484    3.9262  -10.4687 C.3       10 UNK        -0.1985 
     62 C          33.2883    2.5031   -8.3618 C.2       10 UNK         0.4970 
     63 O          34.4700    2.8439   -8.4428 O.2       10 UNK        -0.4914 
     64 N          32.8158    1.6397   -7.4566 N.am      11 UNK        -0.4285 
     65 CA         33.6162    0.8563   -6.5074 C.3       11 UNK         0.1007 
     66 C          34.1752    1.6601   -5.2974 C.2       11 UNK         0.5703 
     67 N          33.7329    2.8888   -5.0555 N.am      11 UNK        -0.7361 
     68 O          35.0338    1.1659   -4.5711 O.2       11 UNK        -0.4986 
     69 C69        32.8229   -0.4033   -6.0589 C.3       12 UNK        -0.0947 
     70 S70        33.8464   -1.9049   -5.9527 S.3       12 UNK        -0.2240 
     71 C71        32.6570   -3.1848   -6.4994 C.3       12 UNK         0.0194 
     72 H72        27.6158   -2.8617    3.7910 H         1 UNK         0.0906 
     73 H73        28.7844   -1.6793    4.3823 H         1 UNK         0.0906 
     74 H74        27.0616   -1.2919    4.3764 H         1 UNK         0.0906 
     75 H75        27.5618   -2.9828    1.5525 H         1 UNK         0.3140 
     76 H76        28.7289   -0.9649   -0.1411 H         1 UNK         0.1085 
     77 H77        27.1094   -3.4673   -0.8774 H         1 UNK         0.0836 
     78 H78        27.9924   -2.4832   -2.0123 H         1 UNK         0.0836 
     79 H79        30.6045   -1.9949   -1.7672 H         1 UNK         0.0731 
     80 H80        31.6640   -3.3502   -1.4786 H         1 UNK         0.0731 
     81 H81        32.4043   -2.6034   -3.7787 H         1 UNK         0.1312 
     82 H82        30.3731   -4.5177   -7.0410 H         1 UNK         0.1406 
     83 H83        28.6501   -4.5611   -3.1317 H         1 UNK         0.1631 
     84 H84        28.0349   -6.2519   -4.8921 H         1 UNK         0.0717 
     85 H85        28.4917   -5.9911   -6.5472 H         1 UNK         0.0717 
     86 H86        27.6180   -4.5360   -8.1031 H         1 UNK         0.0934 
     87 H87        25.8991   -4.7603   -8.0903 H         1 UNK         0.0934 
     88 H88        26.3332   -2.6362   -9.0974 H         1 UNK         0.0739 
     89 H89        24.7528   -2.7094   -6.7782 H         1 UNK         0.3093 
     90 H90        23.4173    0.6002   -6.9740 H         1 UNK         0.0818 
     91 H91        21.3198   -0.7070   -7.1654 H         1 UNK         0.0819 
     92 H92        22.2172   -0.7364   -8.6745 H         1 UNK         0.0819 
     93 H93        22.2267   -2.1458   -7.6278 H         1 UNK         0.0819 
     94 H94        23.4679    0.0107   -4.8577 H         1 UNK         0.3041 
     95 H95        22.5652   -1.5862   -2.9838 H         1 UNK         0.0784 
     96 H96        22.9029   -4.0442   -3.0369 H         1 UNK         0.0793 
     97 H97        24.6486   -3.8352   -3.0377 H         1 UNK         0.0793 
     98 H98        23.6959   -3.3521   -1.6330 H         1 UNK         0.0793 
     99 H99        25.3882   -1.5727   -2.3981 H         1 UNK         0.3024 
    100 H100       26.2471    1.4837   -2.8468 H         1 UNK         0.1171 
    101 H101       26.1120    2.5522   -0.5860 H         1 UNK         0.0786 
    102 H102       24.6326    2.7622   -1.5053 H         1 UNK         0.0786 
    103 H103       24.6913    1.5777   -0.2113 H         1 UNK         0.0786 
    104 H104       27.6746    0.1318   -1.8541 H         1 UNK         0.2977 
    105 H105       27.1994   -1.6414   -5.7970 H         1 UNK         0.3127 
    106 H106       29.9033   -1.0199   -6.2781 H         1 UNK         0.0770 
    107 H107       27.9836    0.2168   -4.2346 H         1 UNK         0.0814 
    108 H108       29.7405    0.2911   -4.1684 H         1 UNK         0.0814 
    109 H109       28.9277   -1.2557   -4.0029 H         1 UNK         0.0814 
    110 H110       26.9671    0.9351   -6.7288 H         1 UNK         0.2983 
    111 H111       28.3578    3.4047   -7.3684 H         1 UNK         0.0947 
    112 H112       26.0799    4.1992   -7.9843 H         1 UNK         0.0806 
    113 H113       26.0701    3.4432   -6.3998 H         1 UNK         0.0806 
    114 H114       25.4333    2.5766   -7.7967 H         1 UNK         0.0806 
    115 H115       26.6942    0.8289   -9.2382 H         1 UNK         0.3000 
    116 H116       27.0985    1.8972  -11.8156 H         1 UNK         0.0850 
    117 H117       26.5702   -0.4232  -12.5807 H         1 UNK         0.0810 
    118 H118       25.4720    0.0894  -11.3082 H         1 UNK         0.0810 
    119 H119       26.7860   -1.0258  -10.9424 H         1 UNK         0.0810 
    120 H120       29.1670   -0.3684   -9.9379 H         1 UNK         0.3040 
    121 H121       31.1849   -0.5971  -12.0000 H         1 UNK         0.0766 
    122 H122       31.2397   -1.2861   -9.0141 H         1 UNK         0.0812 
    123 H123       32.4257   -1.8112  -10.2018 H         1 UNK         0.0812 
    124 H124       30.7673   -2.3815  -10.3109 H         1 UNK         0.0812 
    125 H125       30.5062    1.8795   -9.7264 H         1 UNK         0.3205 
    126 H126       31.5281    3.6124   -8.8088 H         1 UNK         0.0754 
    127 H127       33.3198    4.8052  -10.0276 H         1 UNK         0.0769 
    128 H128       32.0789    4.2803  -11.1548 H         1 UNK         0.0769 
    129 H129       33.6092    3.4105  -11.0555 H         1 UNK         0.0769 
    130 H130       31.8097    1.4783   -7.4204 H         1 UNK         0.2981 
    131 H131       34.4927    0.5239   -7.0670 H         1 UNK         0.0541 
    132 H132       33.0313    3.3027   -5.6477 H         1 UNK         0.3459 
    133 H133       34.1057    3.4041   -4.2740 H         1 UNK         0.3459 
    134 H134       32.0428   -0.6191   -6.7877 H         1 UNK         0.0612 
    135 H135       32.3028   -0.2462   -5.1120 H         1 UNK         0.0612 
    136 H136       32.2464   -2.8925   -7.4665 H         1 UNK         0.0624 
    137 H137       33.2161   -4.1049   -6.6730 H         1 UNK         0.0624 
@<TRIPOS>BOND
     1    1    2 1    
     2    1   72 1    
     3    1   73 1    
     4    1   74 1    
     5    2    3 2    
     6    2    4 am   BACKBONE|DICT|INTERRES
     7    4    5 1    
     8    4   75 1    
     9    5    6 1    
    10    5   35 1    
    11    5   76 1    
    12    6    7 1    
    13    6   77 1    
    14    6   78 1    
    15    7    8 1    
    16    8    9 1    
    17    8   79 1    
    18    8   80 1    
    19    9   10 ar   
    20    9   14 ar   
    21   10   11 ar   
    22   10   81 1    
    23   11   12 ar   
    24   11   71 1    
    25   12   13 ar   
    26   12   82 1    
    27   13   14 ar   
    28   13   15 1    
    29   14   83 1    
    30   15   16 1    
    31   15   84 1    
    32   15   85 1    
    33   16   17 1    
    34   17   18 1    
    35   17   86 1    
    36   17   87 1    
    37   18   19 1    
    38   18   37 1    
    39   18   88 1    
    40   19   20 am   BACKBONE|DICT|INTERRES
    41   19   89 1    
    42   20   21 2    
    43   20   22 1    
    44   22   23 1    
    45   22   24 1    
    46   22   90 1    
    47   23   91 1    
    48   23   92 1    
    49   23   93 1    
    50   24   25 am   BACKBONE|DICT|INTERRES
    51   24   94 1    
    52   25   26 2    
    53   25   27 1    
    54   27   28 1    
    55   27   29 1    
    56   27   95 1    
    57   28   96 1    
    58   28   97 1    
    59   28   98 1    
    60   29   30 am   BACKBONE|DICT|INTERRES
    61   29   99 1    
    62   30   31 2    
    63   30   32 1    
    64   32   33 1    
    65   32   34 1    
    66   32  100 1    
    67   33  101 1    
    68   33  102 1    
    69   33  103 1    
    70   34   35 am   BACKBONE|DICT|INTERRES
    71   34  104 1    
    72   35   36 2    
    73   37   38 2    
    74   37   39 am   BACKBONE|DICT|INTERRES
    75   39   40 1    
    76   39  105 1    
    77   40   41 1    
    78   40   42 1    
    79   40  106 1    
    80   41  107 1    
    81   41  108 1    
    82   41  109 1    
    83   42   43 2    
    84   42   44 am   BACKBONE|DICT|INTERRES
    85   44   45 1    
    86   44  110 1    
    87   45   46 1    
    88   45   47 1    
    89   45  111 1    
    90   46  112 1    
    91   46  113 1    
    92   46  114 1    
    93   47   48 2    
    94   47   49 am   BACKBONE|DICT|INTERRES
    95   49   50 1    
    96   49  115 1    
    97   50   51 1    
    98   50   52 1    
    99   50  116 1    
   100   51  117 1    
   101   51  118 1    
   102   51  119 1    
   103   52   53 2    
   104   52   54 am   BACKBONE|DICT|INTERRES
   105   54   55 1    
   106   54  120 1    
   107   55   56 1    
   108   55   57 1    
   109   55  121 1    
   110   56  122 1    
   111   56  123 1    
   112   56  124 1    
   113   57   58 2    
   114   57   59 am   BACKBONE|DICT|INTERRES
   115   59   60 1    
   116   59  125 1    
   117   60   61 1    
   118   60   62 1    
   119   60  126 1    
   120   61  127 1    
   121   61  128 1    
   122   61  129 1    
   123   62   63 2    
   124   62   64 am   BACKBONE|DICT|INTERRES
   125   64   65 1    
   126   64  130 1    
   127   65   66 1    
   128   65   69 1    
   129   65  131 1    
   130   66   67 am   BACKBONE|DICT|INTERRES
   131   66   68 2    
   132   67  132 1    
   133   67  133 1    
   134   69   70 1    
   135   69  134 1    
   136   69  135 1    
   137   70   71 1    
   138   71  136 1    
   139   71  137 1    
@<TRIPOS>SUBSTRUCTURE
     1 UNK         1 GROUP             0       ****    0 ROOT    
