@<TRIPOS>MOLECULE
3R137
137   139    1
SMALL
USER_CHARGES


@<TRIPOS>ATOM
      1 CA         25.1599   -4.8609    0.1133 C.3       0 UNK        -0.2020 
      2 C          26.0182   -3.6587    0.4754 C.2       0 UNK         0.4855 
      3 O          25.8336   -3.0693    1.5413 O.2       0 UNK        -0.5197 
      4 N          26.9502   -3.2790   -0.4074 N.am      1 UNK        -0.4892 
      5 CA         27.8562   -2.1329   -0.2564 C.3       1 UNK         0.0835 
      6 C6         29.1269   -2.2981   -1.1259 C.3       12 UNK        -0.0855 
      7 S7         30.1443   -3.7326   -0.6326 S.3       12 UNK        -0.2931 
      8 C8         29.9409   -4.8641   -2.0566 C.3       12 UNK         0.0378 
      9 C9         30.3514   -4.2928   -3.4166 C.ar      12 UNK        -0.0802 
     10 C10        31.2956   -3.2643   -3.5404 C.ar      12 UNK        -0.0944 
     11 C11        31.6359   -2.7389   -4.7892 C.ar      12 UNK        -0.0787 
     12 C12        31.0234   -3.2750   -5.9303 C.ar      12 UNK        -0.0862 
     13 C13        30.0909   -4.3111   -5.8355 C.ar      12 UNK        -0.0733 
     14 C14        29.7697   -4.8226   -4.5737 C.ar      12 UNK        -0.0832 
     15 C15        29.4845   -4.8759   -7.1208 C.3       12 UNK         0.0240 
     16 S16        27.7180   -5.3404   -7.0343 S.3       12 UNK        -0.2522 
     17 C17        26.8946   -3.8740   -6.3284 C.3       12 UNK        -0.0967 
     18 CA         26.6765   -2.7048   -7.3302 C.3       5 UNK         0.0660 
     19 N          25.4237   -1.9956   -7.0412 N.am      5 UNK        -0.4015 
     20 C          24.9696   -0.8858   -7.6424 C.2       4 UNK         0.4946 
     21 O          25.5217   -0.3475   -8.6000 O.2       4 UNK        -0.5353 
     22 CA         23.7030   -0.2308   -7.0609 C.3       4 UNK         0.0277 
     23 CB         22.4840   -0.5606   -7.9371 C.3       4 UNK        -0.1981 
     24 N          23.4049   -0.5746   -5.6643 N.am      4 UNK        -0.4209 
     25 C          24.2087   -0.3546   -4.6142 C.2       3 UNK         0.4942 
     26 O          25.3498    0.1092   -4.7010 O.2       3 UNK        -0.5208 
     27 CA         23.6523   -0.7748   -3.2498 C.3       3 UNK         0.0250 
     28 CB         23.6645   -2.3086   -3.0960 C.3       3 UNK        -0.1990 
     29 N          24.4674   -0.1817   -2.1973 N.am      3 UNK        -0.4232 
     30 C          24.0605    0.1167   -0.9600 C.2       2 UNK         0.4993 
     31 O          22.9014   -0.0298   -0.5666 O.2       2 UNK        -0.5286 
     32 CA         25.1548    0.6015    0.0102 C.3       2 UNK         0.0209 
     33 CB         24.5882    1.0741    1.3622 C.3       2 UNK        -0.1931 
     34 N          26.1162   -0.4771    0.2495 N.am      2 UNK        -0.4546 
     35 C          27.1094   -0.8208   -0.5793 C.2       1 UNK         0.5154 
     36 O          27.3872   -0.1783   -1.5940 O.2       1 UNK        -0.5181 
     37 C          27.8900   -1.7518   -7.3300 C.2       5 UNK         0.5014 
     38 O          28.6246   -1.6847   -8.3171 O.2       5 UNK        -0.5248 
     39 N          28.0450   -1.0059   -6.2269 N.am      6 UNK        -0.4434 
     40 CA         29.1434   -0.0669   -6.0100 C.3       6 UNK         0.0363 
     41 CB         29.1888    0.3129   -4.5230 C.3       6 UNK        -0.1936 
     42 C          29.0492    1.1806   -6.8999 C.2       6 UNK         0.5081 
     43 O          30.0854    1.7371   -7.2628 O.2       6 UNK        -0.5248 
     44 N          27.8226    1.5873   -7.2539 N.am      7 UNK        -0.4718 
     45 CA         27.5602    2.6837   -8.1861 C.3       7 UNK         0.0273 
     46 CB         26.0976    3.1399   -8.0608 C.3       7 UNK        -0.1935 
     47 C          27.8968    2.2917   -9.6332 C.2       7 UNK         0.5018 
     48 O          28.5715    3.0570  -10.3214 O.2       7 UNK        -0.5186 
     49 N          27.4496    1.1001  -10.0566 N.am      8 UNK        -0.4240 
     50 CA         27.6912    0.5350  -11.3866 C.3       8 UNK         0.0235 
     51 CB         26.8363   -0.7290  -11.5735 C.3       8 UNK        -0.2000 
     52 C          29.1739    0.2296  -11.6467 C.2       8 UNK         0.4941 
     53 O          29.6762    0.5486  -12.7249 O.2       8 UNK        -0.5273 
     54 N          29.8516   -0.3594  -10.6519 N.am      9 UNK        -0.4262 
     55 CA         31.2879   -0.6484  -10.6936 C.3       9 UNK         0.0264 
     56 CB         31.5937   -1.7539   -9.6750 C.3       9 UNK        -0.1955 
     57 C          32.1751    0.5877  -10.4424 C.2       9 UNK         0.5031 
     58 O          33.3763    0.5189  -10.7044 O.2       9 UNK        -0.5390 
     59 N          31.5816    1.6779   -9.9327 N.am      10 UNK        -0.4204 
     60 CA         32.1836    2.9762   -9.5967 C.3       10 UNK         0.0237 
     61 CB         32.7943    3.6492  -10.8444 C.3       10 UNK        -0.1985 
     62 C          33.1608    2.9507   -8.4023 C.2       10 UNK         0.4970 
     63 O          33.8411    3.9499   -8.1629 O.2       10 UNK        -0.4914 
     64 N          33.1984    1.8404   -7.6573 N.am      11 UNK        -0.4285 
     65 CA         33.9403    1.6800   -6.3975 C.3       11 UNK         0.1007 
     66 C          33.2175    2.2675   -5.1518 C.2       11 UNK         0.5703 
     67 N          31.9532    2.6624   -5.2362 N.am      11 UNK        -0.7361 
     68 O          33.8274    2.3912   -4.0924 O.2       11 UNK        -0.4986 
     69 C69        34.4106    0.2148   -6.1777 C.3       12 UNK        -0.0947 
     70 S70        33.1355   -1.0464   -6.5114 S.3       12 UNK        -0.2240 
     71 C71        32.6597   -1.5976   -4.8391 C.3       12 UNK         0.0194 
     72 H72        24.1109   -4.5701    0.0636 H         1 UNK         0.0906 
     73 H73        25.4395   -5.2879   -0.8496 H         1 UNK         0.0906 
     74 H74        25.2633   -5.6370    0.8712 H         1 UNK         0.0906 
     75 H75        27.0470   -3.7913   -1.2715 H         1 UNK         0.3140 
     76 H76        28.1739   -2.0693    0.7871 H         1 UNK         0.1085 
     77 H77        28.8564   -2.3734   -2.1805 H         1 UNK         0.0836 
     78 H78        29.7608   -1.4128   -1.0439 H         1 UNK         0.0836 
     79 H79        28.8977   -5.1818   -2.0890 H         1 UNK         0.0731 
     80 H80        30.5300   -5.7626   -1.8690 H         1 UNK         0.0731 
     81 H81        31.7697   -2.8563   -2.6588 H         1 UNK         0.1312 
     82 H82        31.2658   -2.8969   -6.9107 H         1 UNK         0.1406 
     83 H83        29.0575   -5.6326   -4.4926 H         1 UNK         0.1631 
     84 H84        30.0547   -5.7612   -7.4042 H         1 UNK         0.0717 
     85 H85        29.6058   -4.1686   -7.9422 H         1 UNK         0.0717 
     86 H86        25.9281   -4.2436   -5.9819 H         1 UNK         0.0934 
     87 H87        27.4053   -3.5560   -5.4178 H         1 UNK         0.0934 
     88 H88        26.5728   -3.1097   -8.3390 H         1 UNK         0.0739 
     89 H89        24.8777   -2.3543   -6.2734 H         1 UNK         0.3093 
     90 H90        23.8632    0.8486   -7.0958 H         1 UNK         0.0818 
     91 H91        21.5999   -0.0114   -7.6129 H         1 UNK         0.0819 
     92 H92        22.6660   -0.2882   -8.9781 H         1 UNK         0.0819 
     93 H93        22.2468   -1.6250   -7.9163 H         1 UNK         0.0819 
     94 H94        22.4921   -0.9721   -5.4915 H         1 UNK         0.3041 
     95 H95        22.6287   -0.4021   -3.1699 H         1 UNK         0.0784 
     96 H96        23.0540   -2.7917   -3.8596 H         1 UNK         0.0793 
     97 H97        24.6746   -2.7126   -3.1770 H         1 UNK         0.0793 
     98 H98        23.2638   -2.6121   -2.1284 H         1 UNK         0.0793 
     99 H99        25.4360   -0.0098   -2.4543 H         1 UNK         0.3024 
    100 H100       25.6630    1.4480   -0.4582 H         1 UNK         0.1171 
    101 H101       25.3778    1.4534    2.0111 H         1 UNK         0.0786 
    102 H102       23.8683    1.8817    1.2229 H         1 UNK         0.0786 
    103 H103       24.0782    0.2682    1.8918 H         1 UNK         0.0786 
    104 H104       25.8973   -1.1277    0.9983 H         1 UNK         0.2977 
    105 H105       27.3476   -1.0587   -5.4961 H         1 UNK         0.3127 
    106 H106       30.0770   -0.5717   -6.2627 H         1 UNK         0.0770 
    107 H107       28.2700    0.8063   -4.2024 H         1 UNK         0.0814 
    108 H108       30.0151    0.9906   -4.3132 H         1 UNK         0.0814 
    109 H109       29.3317   -0.5670   -3.8956 H         1 UNK         0.0814 
    110 H110       27.0272    1.0603   -6.9222 H         1 UNK         0.2983 
    111 H111       28.2010    3.5249   -7.9112 H         1 UNK         0.0947 
    112 H112       25.9042    3.9992   -8.7042 H         1 UNK         0.0806 
    113 H113       25.8612    3.4403   -7.0398 H         1 UNK         0.0806 
    114 H114       25.3985    2.3556   -8.3507 H         1 UNK         0.0806 
    115 H115       26.8646    0.5465   -9.4312 H         1 UNK         0.3000 
    116 H116       27.3716    1.2749  -12.1235 H         1 UNK         0.0850 
    117 H117       26.9929   -1.1665  -12.5604 H         1 UNK         0.0810 
    118 H118       25.7735   -0.5041  -11.4825 H         1 UNK         0.0810 
    119 H119       27.0785   -1.4926  -10.8328 H         1 UNK         0.0810 
    120 H120       29.3499   -0.6514   -9.8154 H         1 UNK         0.3040 
    121 H121       31.5393   -1.0269  -11.6867 H         1 UNK         0.0766 
    122 H122       31.2897   -1.4500   -8.6750 H         1 UNK         0.0812 
    123 H123       32.6592   -1.9859   -9.6435 H         1 UNK         0.0812 
    124 H124       31.0646   -2.6756   -9.9175 H         1 UNK         0.0812 
    125 H125       30.5942    1.6095   -9.7233 H         1 UNK         0.3205 
    126 H126       31.3489    3.5987   -9.2707 H         1 UNK         0.0754 
    127 H127       33.0864    4.6783  -10.6319 H         1 UNK         0.0769 
    128 H128       32.0788    3.6811  -11.6662 H         1 UNK         0.0769 
    129 H129       33.6850    3.1260  -11.1934 H         1 UNK         0.0769 
    130 H130       32.5774    1.0814   -7.8955 H         1 UNK         0.2981 
    131 H131       34.8514    2.2747   -6.4852 H         1 UNK         0.0541 
    132 H132       31.4174    2.5035   -6.0836 H         1 UNK         0.3459 
    133 H133       31.5105    3.0649   -4.4268 H         1 UNK         0.3459 
    134 H134       34.8261    0.0715   -5.1786 H         1 UNK         0.0612 
    135 H135       35.2346    0.0081   -6.8620 H         1 UNK         0.0612 
    136 H136       33.5612   -1.9124   -4.3116 H         1 UNK         0.0624 
    137 H137       32.2579   -0.7412   -4.2957 H         1 UNK         0.0624 
@<TRIPOS>BOND
     1    1    2 1    
     2    1   72 1    
     3    1   73 1    
     4    1   74 1    
     5    2    3 2    
     6    2    4 am   BACKBONE|DICT|INTERRES
     7    4    5 1    
     8    4   75 1    
     9    5    6 1    
    10    5   35 1    
    11    5   76 1    
    12    6    7 1    
    13    6   77 1    
    14    6   78 1    
    15    7    8 1    
    16    8    9 1    
    17    8   79 1    
    18    8   80 1    
    19    9   10 ar   
    20    9   14 ar   
    21   10   11 ar   
    22   10   81 1    
    23   11   12 ar   
    24   11   71 1    
    25   12   13 ar   
    26   12   82 1    
    27   13   14 ar   
    28   13   15 1    
    29   14   83 1    
    30   15   16 1    
    31   15   84 1    
    32   15   85 1    
    33   16   17 1    
    34   17   18 1    
    35   17   86 1    
    36   17   87 1    
    37   18   19 1    
    38   18   37 1    
    39   18   88 1    
    40   19   20 am   BACKBONE|DICT|INTERRES
    41   19   89 1    
    42   20   21 2    
    43   20   22 1    
    44   22   23 1    
    45   22   24 1    
    46   22   90 1    
    47   23   91 1    
    48   23   92 1    
    49   23   93 1    
    50   24   25 am   BACKBONE|DICT|INTERRES
    51   24   94 1    
    52   25   26 2    
    53   25   27 1    
    54   27   28 1    
    55   27   29 1    
    56   27   95 1    
    57   28   96 1    
    58   28   97 1    
    59   28   98 1    
    60   29   30 am   BACKBONE|DICT|INTERRES
    61   29   99 1    
    62   30   31 2    
    63   30   32 1    
    64   32   33 1    
    65   32   34 1    
    66   32  100 1    
    67   33  101 1    
    68   33  102 1    
    69   33  103 1    
    70   34   35 am   BACKBONE|DICT|INTERRES
    71   34  104 1    
    72   35   36 2    
    73   37   38 2    
    74   37   39 am   BACKBONE|DICT|INTERRES
    75   39   40 1    
    76   39  105 1    
    77   40   41 1    
    78   40   42 1    
    79   40  106 1    
    80   41  107 1    
    81   41  108 1    
    82   41  109 1    
    83   42   43 2    
    84   42   44 am   BACKBONE|DICT|INTERRES
    85   44   45 1    
    86   44  110 1    
    87   45   46 1    
    88   45   47 1    
    89   45  111 1    
    90   46  112 1    
    91   46  113 1    
    92   46  114 1    
    93   47   48 2    
    94   47   49 am   BACKBONE|DICT|INTERRES
    95   49   50 1    
    96   49  115 1    
    97   50   51 1    
    98   50   52 1    
    99   50  116 1    
   100   51  117 1    
   101   51  118 1    
   102   51  119 1    
   103   52   53 2    
   104   52   54 am   BACKBONE|DICT|INTERRES
   105   54   55 1    
   106   54  120 1    
   107   55   56 1    
   108   55   57 1    
   109   55  121 1    
   110   56  122 1    
   111   56  123 1    
   112   56  124 1    
   113   57   58 2    
   114   57   59 am   BACKBONE|DICT|INTERRES
   115   59   60 1    
   116   59  125 1    
   117   60   61 1    
   118   60   62 1    
   119   60  126 1    
   120   61  127 1    
   121   61  128 1    
   122   61  129 1    
   123   62   63 2    
   124   62   64 am   BACKBONE|DICT|INTERRES
   125   64   65 1    
   126   64  130 1    
   127   65   66 1    
   128   65   69 1    
   129   65  131 1    
   130   66   67 am   BACKBONE|DICT|INTERRES
   131   66   68 2    
   132   67  132 1    
   133   67  133 1    
   134   69   70 1    
   135   69  134 1    
   136   69  135 1    
   137   70   71 1    
   138   71  136 1    
   139   71  137 1    
@<TRIPOS>SUBSTRUCTURE
     1 UNK         1 GROUP             0       ****    0 ROOT    
