@<TRIPOS>MOLECULE
3R137
137   139    1
SMALL
USER_CHARGES


@<TRIPOS>ATOM
      1 CA         22.9336   -5.1531   -3.5596 C.3       0 UNK        -0.2020 
      2 C          23.6556   -4.4617   -2.4136 C.2       0 UNK         0.4855 
      3 O          23.1036   -3.5440   -1.8058 O.2       0 UNK        -0.5197 
      4 N          24.8931   -4.8819   -2.1222 N.am      1 UNK        -0.4892 
      5 CA         25.7726   -4.3055   -1.0995 C.3       1 UNK         0.0835 
      6 C6         27.0671   -5.1369   -0.8950 C.3       12 UNK        -0.0855 
      7 S7         27.8909   -5.6759   -2.4391 S.3       12 UNK        -0.2931 
      8 C8         29.6441   -5.6608   -1.9534 C.3       12 UNK         0.0378 
      9 C9         30.3858   -4.4657   -2.5346 C.ar      12 UNK        -0.0802 
     10 C10        31.0898   -4.6032   -3.7345 C.ar      12 UNK        -0.0944 
     11 C11        31.8318   -3.5374   -4.2510 C.ar      12 UNK        -0.0787 
     12 C12        31.8625   -2.3242   -3.5589 C.ar      12 UNK        -0.0862 
     13 C13        31.1392   -2.1622   -2.3735 C.ar      12 UNK        -0.0733 
     14 C14        30.4032   -3.2384   -1.8637 C.ar      12 UNK        -0.0832 
     15 C15        31.1757   -0.8307   -1.6333 C.3       12 UNK         0.0240 
     16 S16        30.5884    0.5616   -2.6557 S.3       12 UNK        -0.2522 
     17 C17        28.8522    0.0971   -2.9577 C.3       12 UNK        -0.0967 
     18 CA         28.5230   -0.0443   -4.4677 C.3       5 UNK         0.0660 
     19 N          27.4403   -1.0066   -4.6889 N.am      5 UNK        -0.4015 
     20 C          26.9315   -1.3694   -5.8755 C.2       4 UNK         0.4946 
     21 O          27.3571   -0.9828   -6.9639 O.2       4 UNK        -0.5353 
     22 CA         25.6851   -2.2671   -5.8330 C.3       4 UNK         0.0277 
     23 CB         26.0668   -3.7396   -5.6102 C.3       4 UNK        -0.1981 
     24 N          24.7406   -1.8260   -4.8025 N.am      4 UNK        -0.4209 
     25 C          24.0289   -0.6908   -4.8731 C.2       3 UNK         0.4942 
     26 O          24.0441    0.0651   -5.8424 O.2       3 UNK        -0.5208 
     27 CA         23.1985   -0.3031   -3.6396 C.3       3 UNK         0.0250 
     28 CB         21.8194   -0.9799   -3.6717 C.3       3 UNK        -0.1990 
     29 N          23.8885   -0.6139   -2.3852 N.am      3 UNK        -0.4232 
     30 C          24.9813    0.0402   -1.9604 C.2       2 UNK         0.4993 
     31 O          25.4840    0.9874   -2.5641 O.2       2 UNK        -0.5286 
     32 CA         25.6654   -0.4732   -0.6802 C.3       2 UNK         0.0209 
     33 CB         25.0760    0.2187    0.5587 C.3       2 UNK        -0.1931 
     34 N          25.5891   -1.9279   -0.5128 N.am      2 UNK        -0.4546 
     35 C          26.0639   -2.8207   -1.3926 C.2       1 UNK         0.5154 
     36 O          26.6501   -2.5039   -2.4285 O.2       1 UNK        -0.5181 
     37 C          28.2204    1.3302   -5.1048 C.2       5 UNK         0.5014 
     38 O          29.0903    1.8978   -5.7649 O.2       5 UNK        -0.5248 
     39 N          26.9907    1.8288   -4.9049 N.am      6 UNK        -0.4434 
     40 CA         26.4948    3.0776   -5.4841 C.3       6 UNK         0.0363 
     41 CB         25.2085    3.5017   -4.7571 C.3       6 UNK        -0.1936 
     42 C          26.2519    2.9940   -7.0014 C.2       6 UNK         0.5081 
     43 O          26.5330    3.9652   -7.7045 O.2       6 UNK        -0.5248 
     44 N          25.7103    1.8637   -7.4787 N.am      7 UNK        -0.4718 
     45 CA         25.3891    1.6350   -8.8909 C.3       7 UNK         0.0273 
     46 CB         24.4793    0.4037   -9.0265 C.3       7 UNK        -0.1935 
     47 C          26.6297    1.4849   -9.7852 C.2       7 UNK         0.5018 
     48 O          26.6211    1.9872  -10.9105 O.2       7 UNK        -0.5186 
     49 N          27.6615    0.7907   -9.2872 N.am      8 UNK        -0.4240 
     50 CA         28.9353    0.5955   -9.9799 C.3       8 UNK         0.0235 
     51 CB         29.7483   -0.4780   -9.2413 C.3       8 UNK        -0.2000 
     52 C          29.7298    1.9087  -10.0805 C.2       8 UNK         0.4941 
     53 O          29.9125    2.5896   -9.0703 O.2       8 UNK        -0.5273 
     54 N          30.2100    2.2293  -11.2899 N.am      9 UNK        -0.4262 
     55 CA         31.0022    3.4336  -11.5677 C.3       9 UNK         0.0264 
     56 CB         31.0564    3.6706  -13.0860 C.3       9 UNK        -0.1955 
     57 C          32.4245    3.3766  -10.9811 C.2       9 UNK         0.5031 
     58 O          32.9702    4.4190  -10.6161 O.2       9 UNK        -0.5390 
     59 N          32.9921    2.1680  -10.9021 N.am      10 UNK        -0.4204 
     60 CA         34.3126    1.8776  -10.3543 C.3       10 UNK         0.0237 
     61 CB         35.4110    2.2326  -11.3785 C.3       10 UNK        -0.1985 
     62 C          34.3250    0.3986   -9.9554 C.2       10 UNK         0.4970 
     63 O          34.8133   -0.4371  -10.7180 O.2       10 UNK        -0.4914 
     64 N          33.7189    0.0953   -8.8011 N.am      11 UNK        -0.4285 
     65 CA         33.6250   -1.2619   -8.2435 C.3       11 UNK         0.1007 
     66 C          35.0119   -1.8629   -7.8769 C.2       11 UNK         0.5703 
     67 N          35.2116   -3.1547   -8.0997 N.am      11 UNK        -0.7361 
     68 O          35.8898   -1.1742   -7.3597 O.2       11 UNK        -0.4986 
     69 C69        32.6475   -1.3056   -7.0375 C.3       12 UNK        -0.0947 
     70 S70        31.7671   -2.9011   -6.9424 S.3       12 UNK        -0.2240 
     71 C71        32.6104   -3.7074   -5.5464 C.3       12 UNK         0.0194 
     72 H72        21.9828   -5.5572   -3.2132 H         1 UNK         0.0906 
     73 H73        22.7304   -4.4421   -4.3598 H         1 UNK         0.0906 
     74 H74        23.5192   -5.9733   -3.9746 H         1 UNK         0.0906 
     75 H75        25.3207   -5.6127   -2.6747 H         1 UNK         0.3140 
     76 H76        25.2196   -4.3484   -0.1585 H         1 UNK         0.1085 
     77 H77        26.8220   -6.0410   -0.3354 H         1 UNK         0.0836 
     78 H78        27.7718   -4.5913   -0.2646 H         1 UNK         0.0836 
     79 H79        30.1038   -6.5860   -2.3044 H         1 UNK         0.0731 
     80 H80        29.7460   -5.6779   -0.8674 H         1 UNK         0.0731 
     81 H81        31.0706   -5.5481   -4.2604 H         1 UNK         0.1312 
     82 H82        32.4388   -1.4965   -3.9469 H         1 UNK         0.1406 
     83 H83        29.8518   -3.1274   -0.9401 H         1 UNK         0.1631 
     84 H84        32.2014   -0.6289   -1.3219 H         1 UNK         0.0717 
     85 H85        30.5805   -0.8737   -0.7198 H         1 UNK         0.0717 
     86 H86        28.6632   -0.8456   -2.4444 H         1 UNK         0.0934 
     87 H87        28.2038    0.8256   -2.4678 H         1 UNK         0.0934 
     88 H88        29.3939   -0.4608   -4.9793 H         1 UNK         0.0739 
     89 H89        27.0584   -1.4497   -3.8551 H         1 UNK         0.3093 
     90 H90        25.1874   -2.1919   -6.8021 H         1 UNK         0.0818 
     91 H91        26.7468   -4.0844   -6.3903 H         1 UNK         0.0819 
     92 H92        26.5694   -3.8937   -4.6553 H         1 UNK         0.0819 
     93 H93        25.1901   -4.3861   -5.6373 H         1 UNK         0.0819 
     94 H94        24.7288   -2.3501   -3.9394 H         1 UNK         0.3041 
     95 H95        23.0408    0.7772   -3.6757 H         1 UNK         0.0784 
     96 H96        21.2694   -0.6944   -4.5694 H         1 UNK         0.0793 
     97 H97        21.8967   -2.0669   -3.6725 H         1 UNK         0.0793 
     98 H98        21.2133   -0.6873   -2.8142 H         1 UNK         0.0793 
     99 H99        23.5587   -1.4197   -1.8647 H         1 UNK         0.3024 
    100 H100       26.7218   -0.2063   -0.7487 H         1 UNK         0.1171 
    101 H101       25.6158   -0.0596    1.4641 H         1 UNK         0.0786 
    102 H102       25.1406    1.3040    0.4665 H         1 UNK         0.0786 
    103 H103       24.0246   -0.0341    0.7018 H         1 UNK         0.0786 
    104 H104       25.0880   -2.2615    0.2984 H         1 UNK         0.2977 
    105 H105       26.3604    1.3397   -4.2746 H         1 UNK         0.3127 
    106 H106       27.2492    3.8486   -5.3130 H         1 UNK         0.0770 
    107 H107       24.4200    2.7558   -4.8653 H         1 UNK         0.0814 
    108 H108       24.8263    4.4426   -5.1552 H         1 UNK         0.0814 
    109 H109       25.3853    3.6478   -3.6913 H         1 UNK         0.0814 
    110 H110       25.4395    1.1336   -6.8268 H         1 UNK         0.2983 
    111 H111       24.8332    2.5037   -9.2506 H         1 UNK         0.0947 
    112 H112       24.9581   -0.4948   -8.6359 H         1 UNK         0.0806 
    113 H113       24.2290    0.2141  -10.0711 H         1 UNK         0.0806 
    114 H114       23.5407    0.5438   -8.4901 H         1 UNK         0.0806 
    115 H115       27.5767    0.3830   -8.3593 H         1 UNK         0.3000 
    116 H116       28.7207    0.2300  -10.9864 H         1 UNK         0.0850 
    117 H117       30.7320   -0.6168   -9.6914 H         1 UNK         0.0810 
    118 H118       29.2413   -1.4429   -9.2597 H         1 UNK         0.0810 
    119 H119       29.8951   -0.2053   -8.1958 H         1 UNK         0.0810 
    120 H120       30.0024    1.6292  -12.0759 H         1 UNK         0.3040 
    121 H121       30.4939    4.2855  -11.1103 H         1 UNK         0.0766 
    122 H122       30.0575    3.7963  -13.5043 H         1 UNK         0.0812 
    123 H123       31.5397    2.8446  -13.6093 H         1 UNK         0.0812 
    124 H124       31.6187    4.5762  -13.3186 H         1 UNK         0.0812 
    125 H125       32.4627    1.3664  -11.2164 H         1 UNK         0.3205 
    126 H126       34.4718    2.4726   -9.4522 H         1 UNK         0.0754 
    127 H127       36.3978    1.9604  -11.0017 H         1 UNK         0.0769 
    128 H128       35.4294    3.3024  -11.5871 H         1 UNK         0.0769 
    129 H129       35.2657    1.7113  -12.3255 H         1 UNK         0.0769 
    130 H130       33.3480    0.8405   -8.2306 H         1 UNK         0.2981 
    131 H131       33.2043   -1.8713   -9.0465 H         1 UNK         0.0541 
    132 H132       36.1007   -3.5629   -7.8581 H         1 UNK         0.3459 
    133 H133       34.4900   -3.7283   -8.5076 H         1 UNK         0.3459 
    134 H134       33.1557   -1.0797   -6.0991 H         1 UNK         0.0612 
    135 H135       31.8817   -0.5369   -7.1363 H         1 UNK         0.0612 
    136 H136       32.7240   -4.7667   -5.7817 H         1 UNK         0.0624 
    137 H137       33.6224   -3.3171   -5.4303 H         1 UNK         0.0624 
@<TRIPOS>BOND
     1    1    2 1    
     2    1   72 1    
     3    1   73 1    
     4    1   74 1    
     5    2    3 2    
     6    2    4 am   BACKBONE|DICT|INTERRES
     7    4    5 1    
     8    4   75 1    
     9    5    6 1    
    10    5   35 1    
    11    5   76 1    
    12    6    7 1    
    13    6   77 1    
    14    6   78 1    
    15    7    8 1    
    16    8    9 1    
    17    8   79 1    
    18    8   80 1    
    19    9   10 ar   
    20    9   14 ar   
    21   10   11 ar   
    22   10   81 1    
    23   11   12 ar   
    24   11   71 1    
    25   12   13 ar   
    26   12   82 1    
    27   13   14 ar   
    28   13   15 1    
    29   14   83 1    
    30   15   16 1    
    31   15   84 1    
    32   15   85 1    
    33   16   17 1    
    34   17   18 1    
    35   17   86 1    
    36   17   87 1    
    37   18   19 1    
    38   18   37 1    
    39   18   88 1    
    40   19   20 am   BACKBONE|DICT|INTERRES
    41   19   89 1    
    42   20   21 2    
    43   20   22 1    
    44   22   23 1    
    45   22   24 1    
    46   22   90 1    
    47   23   91 1    
    48   23   92 1    
    49   23   93 1    
    50   24   25 am   BACKBONE|DICT|INTERRES
    51   24   94 1    
    52   25   26 2    
    53   25   27 1    
    54   27   28 1    
    55   27   29 1    
    56   27   95 1    
    57   28   96 1    
    58   28   97 1    
    59   28   98 1    
    60   29   30 am   BACKBONE|DICT|INTERRES
    61   29   99 1    
    62   30   31 2    
    63   30   32 1    
    64   32   33 1    
    65   32   34 1    
    66   32  100 1    
    67   33  101 1    
    68   33  102 1    
    69   33  103 1    
    70   34   35 am   BACKBONE|DICT|INTERRES
    71   34  104 1    
    72   35   36 2    
    73   37   38 2    
    74   37   39 am   BACKBONE|DICT|INTERRES
    75   39   40 1    
    76   39  105 1    
    77   40   41 1    
    78   40   42 1    
    79   40  106 1    
    80   41  107 1    
    81   41  108 1    
    82   41  109 1    
    83   42   43 2    
    84   42   44 am   BACKBONE|DICT|INTERRES
    85   44   45 1    
    86   44  110 1    
    87   45   46 1    
    88   45   47 1    
    89   45  111 1    
    90   46  112 1    
    91   46  113 1    
    92   46  114 1    
    93   47   48 2    
    94   47   49 am   BACKBONE|DICT|INTERRES
    95   49   50 1    
    96   49  115 1    
    97   50   51 1    
    98   50   52 1    
    99   50  116 1    
   100   51  117 1    
   101   51  118 1    
   102   51  119 1    
   103   52   53 2    
   104   52   54 am   BACKBONE|DICT|INTERRES
   105   54   55 1    
   106   54  120 1    
   107   55   56 1    
   108   55   57 1    
   109   55  121 1    
   110   56  122 1    
   111   56  123 1    
   112   56  124 1    
   113   57   58 2    
   114   57   59 am   BACKBONE|DICT|INTERRES
   115   59   60 1    
   116   59  125 1    
   117   60   61 1    
   118   60   62 1    
   119   60  126 1    
   120   61  127 1    
   121   61  128 1    
   122   61  129 1    
   123   62   63 2    
   124   62   64 am   BACKBONE|DICT|INTERRES
   125   64   65 1    
   126   64  130 1    
   127   65   66 1    
   128   65   69 1    
   129   65  131 1    
   130   66   67 am   BACKBONE|DICT|INTERRES
   131   66   68 2    
   132   67  132 1    
   133   67  133 1    
   134   69   70 1    
   135   69  134 1    
   136   69  135 1    
   137   70   71 1    
   138   71  136 1    
   139   71  137 1    
@<TRIPOS>SUBSTRUCTURE
     1 UNK         1 GROUP             0       ****    0 ROOT    
