@<TRIPOS>MOLECULE
3R137
137   139    1
SMALL
USER_CHARGES


@<TRIPOS>ATOM
      1 CA         29.9816    0.2599    1.6605 C.3       0 UNK        -0.2020 
      2 C          29.2586   -0.3713    0.4801 C.2       0 UNK         0.4855 
      3 O          29.0369    0.2977   -0.5287 O.2       0 UNK        -0.5197 
      4 N          28.8980   -1.6550    0.5972 N.am      1 UNK        -0.4892 
      5 CA         28.1772   -2.4275   -0.4220 C.3       1 UNK         0.0835 
      6 C6         28.1662   -3.9432   -0.0992 C.3       12 UNK        -0.0855 
      7 S7         29.8273   -4.6273    0.2244 S.3       12 UNK        -0.2931 
      8 C8         30.1207   -5.6589   -1.2515 C.3       12 UNK         0.0378 
      9 C9         30.5272   -4.8827   -2.5037 C.ar      12 UNK        -0.0802 
     10 C10        31.3950   -3.7849   -2.4354 C.ar      12 UNK        -0.0944 
     11 C11        31.8396   -3.1557   -3.6017 C.ar      12 UNK        -0.0787 
     12 C12        31.4155   -3.6311   -4.8449 C.ar      12 UNK        -0.0862 
     13 C13        30.5426   -4.7198   -4.9325 C.ar      12 UNK        -0.0733 
     14 C14        30.0995   -5.3357   -3.7572 C.ar      12 UNK        -0.0832 
     15 C15        30.1293   -5.2789   -6.2911 C.3       12 UNK         0.0240 
     16 S16        29.5688   -4.0025   -7.4646 S.3       12 UNK        -0.2522 
     17 C17        28.0100   -3.4789   -6.6836 C.3       12 UNK        -0.0967 
     18 CA         27.3608   -2.2876   -7.4275 C.3       5 UNK         0.0660 
     19 N          25.9462   -2.1568   -7.0967 N.am      5 UNK        -0.4015 
     20 C          24.9308   -2.3559   -7.9458 C.2       4 UNK         0.4946 
     21 O          25.0562   -2.8758   -9.0550 O.2       4 UNK        -0.5353 
     22 CA         23.5313   -1.8746   -7.5066 C.3       4 UNK         0.0277 
     23 CB         22.6463   -3.0745   -7.1308 C.3       4 UNK        -0.1981 
     24 N          23.5296   -0.9163   -6.3946 N.am      4 UNK        -0.4209 
     25 C          24.1669    0.2635   -6.3656 C.2       3 UNK         0.4942 
     26 O          24.8081    0.7247   -7.3117 O.2       3 UNK        -0.5208 
     27 CA         24.1765    1.0114   -5.0207 C.3       3 UNK         0.0250 
     28 CB         23.0119    2.0116   -4.9595 C.3       3 UNK        -0.1990 
     29 N          24.1507    0.1541   -3.8240 N.am      3 UNK        -0.4232 
     30 C          24.9977   -0.8503   -3.5527 C.2       2 UNK         0.4993 
     31 O          25.8448   -1.2756   -4.3444 O.2       2 UNK        -0.5286 
     32 CA         24.8719   -1.5161   -2.1822 C.3       2 UNK         0.0209 
     33 CB         23.8863   -2.6951   -2.2385 C.3       2 UNK        -0.1931 
     34 N          26.1962   -2.0038   -1.8043 N.am      2 UNK        -0.4546 
     35 C          26.7286   -1.9176   -0.5821 C.2       1 UNK         0.5154 
     36 O          26.1128   -1.4957    0.4015 O.2       1 UNK        -0.5181 
     37 C          28.0745   -0.9537   -7.1347 C.2       5 UNK         0.5014 
     38 O          28.7286   -0.4068   -8.0226 O.2       5 UNK        -0.5248 
     39 N          27.9187   -0.4313   -5.9107 N.am      6 UNK        -0.4434 
     40 CA         28.6766    0.6955   -5.3616 C.3       6 UNK         0.0363 
     41 CB         28.4129    0.7896   -3.8509 C.3       6 UNK        -0.1936 
     42 C          28.4395    2.0571   -6.0342 C.2       6 UNK         0.5081 
     43 O          29.2776    2.9430   -5.8652 O.2       6 UNK        -0.5248 
     44 N          27.3388    2.2091   -6.7800 N.am      7 UNK        -0.4718 
     45 CA         27.0653    3.3828   -7.6111 C.3       7 UNK         0.0273 
     46 CB         25.7269    4.0184   -7.1981 C.3       7 UNK        -0.1935 
     47 C          27.0569    3.0029   -9.0979 C.2       7 UNK         0.5018 
     48 O          27.6097    3.7481   -9.9069 O.2       7 UNK        -0.5186 
     49 N          26.4320    1.8638   -9.4347 N.am      8 UNK        -0.4240 
     50 CA         26.2668    1.3834  -10.8095 C.3       8 UNK         0.0235 
     51 CB         25.2732    0.2130  -10.8265 C.3       8 UNK        -0.2000 
     52 C          27.5846    0.9849  -11.4974 C.2       8 UNK         0.4941 
     53 O          27.7984    1.3712  -12.6474 O.2       8 UNK        -0.5273 
     54 N          28.4333    0.2235  -10.7941 N.am      9 UNK        -0.4262 
     55 CA         29.7605   -0.1922  -11.2607 C.3       9 UNK         0.0264 
     56 CB         29.9891   -1.6734  -10.9130 C.3       9 UNK        -0.1955 
     57 C          30.8657    0.6845  -10.6496 C.2       9 UNK         0.5031 
     58 O          31.8575    0.9485  -11.3305 O.2       9 UNK        -0.5390 
     59 N          30.6460    1.1272   -9.4021 N.am      10 UNK        -0.4204 
     60 CA         31.4957    1.9451   -8.5325 C.3       10 UNK         0.0237 
     61 CB         32.0373    3.2081   -9.2317 C.3       10 UNK        -0.1985 
     62 C          32.6134    1.1233   -7.8741 C.2       10 UNK         0.4970 
     63 O          33.3468    0.4069   -8.5583 O.2       10 UNK        -0.4914 
     64 N          32.7294    1.2591   -6.5480 N.am      11 UNK        -0.4285 
     65 CA         33.8043    0.6641   -5.7410 C.3       11 UNK         0.1007 
     66 C          35.1655    1.3758   -5.9707 C.2       11 UNK         0.5703 
     67 N          36.2701    0.6486   -5.8718 N.am      11 UNK        -0.7361 
     68 O          35.2315    2.5830   -6.1976 O.2       11 UNK        -0.4986 
     69 C69        33.4421    0.6405   -4.2325 C.3       12 UNK        -0.0947 
     70 S70        31.9948   -0.4121   -3.8878 S.3       12 UNK        -0.2240 
     71 C71        32.8170   -1.9934   -3.5335 C.3       12 UNK         0.0194 
     72 H72        30.1243   -0.4470    2.4777 H         1 UNK         0.0906 
     73 H73        30.9616    0.6210    1.3498 H         1 UNK         0.0906 
     74 H74        29.4107    1.1068    2.0402 H         1 UNK         0.0906 
     75 H75        29.1024   -2.1560    1.4500 H         1 UNK         0.3140 
     76 H76        28.7000   -2.2811   -1.3706 H         1 UNK         0.1085 
     77 H77        27.5566   -4.1396    0.7855 H         1 UNK         0.0836 
     78 H78        27.6980   -4.5002   -0.9132 H         1 UNK         0.0836 
     79 H79        29.2351   -6.2676   -1.4407 H         1 UNK         0.0731 
     80 H80        30.9239   -6.3593   -1.0192 H         1 UNK         0.0731 
     81 H81        31.7489   -3.4354   -1.4753 H         1 UNK         0.1312 
     82 H82        31.7755   -3.1562   -5.7476 H         1 UNK         0.1406 
     83 H83        29.4482   -6.1973   -3.8200 H         1 UNK         0.1631 
     84 H84        29.3407   -6.0253   -6.1831 H         1 UNK         0.0717 
     85 H85        30.9851   -5.7970   -6.7254 H         1 UNK         0.0717 
     86 H86        27.3368   -4.3376   -6.7032 H         1 UNK         0.0934 
     87 H87        28.1770   -3.2523   -5.6285 H         1 UNK         0.0934 
     88 H88        27.4599   -2.4615   -8.5017 H         1 UNK         0.0739 
     89 H89        25.7382   -1.7625   -6.1839 H         1 UNK         0.3093 
     90 H90        23.0857   -1.3719   -8.3674 H         1 UNK         0.0818 
     91 H91        21.6236   -2.7635   -6.9166 H         1 UNK         0.0819 
     92 H92        22.5974   -3.7958   -7.9479 H         1 UNK         0.0819 
     93 H93        23.0300   -3.6000   -6.2552 H         1 UNK         0.0819 
     94 H94        23.0467   -1.2051   -5.5564 H         1 UNK         0.3041 
     95 H95        25.1082    1.5787   -4.9812 H         1 UNK         0.0784 
     96 H96        23.0124    2.6694   -5.8299 H         1 UNK         0.0793 
     97 H97        22.0457    1.5061   -4.9348 H         1 UNK         0.0793 
     98 H98        23.0812    2.6488   -4.0776 H         1 UNK         0.0793 
     99 H99        23.4725    0.4081   -3.1193 H         1 UNK         0.3024 
    100 H100       24.5206   -0.7730   -1.4621 H         1 UNK         0.1171 
    101 H101       23.8041   -3.1867   -1.2689 H         1 UNK         0.0786 
    102 H102       22.8864   -2.3596   -2.5166 H         1 UNK         0.0786 
    103 H103       24.1954   -3.4455   -2.9677 H         1 UNK         0.0786 
    104 H104       26.7617   -2.3121   -2.5849 H         1 UNK         0.2977 
    105 H105       27.2807   -0.8848   -5.2583 H         1 UNK         0.3127 
    106 H106       29.7323    0.4619   -5.5071 H         1 UNK         0.0770 
    107 H107       27.3760    1.0471   -3.6352 H         1 UNK         0.0814 
    108 H108       29.0398    1.5552   -3.3917 H         1 UNK         0.0814 
    109 H109       28.6405   -0.1499   -3.3469 H         1 UNK         0.0814 
    110 H110       26.6937    1.4330   -6.8660 H         1 UNK         0.2983 
    111 H111       27.8444    4.1370   -7.4786 H         1 UNK         0.0947 
    112 H112       25.5428    4.9328   -7.7633 H         1 UNK         0.0806 
    113 H113       25.7246    4.2845   -6.1411 H         1 UNK         0.0806 
    114 H114       24.8829    3.3532   -7.3780 H         1 UNK         0.0806 
    115 H115       25.9352    1.3516   -8.7109 H         1 UNK         0.3000 
    116 H116       25.8299    2.2006  -11.3878 H         1 UNK         0.0850 
    117 H117       25.0662   -0.1091  -11.8478 H         1 UNK         0.0810 
    118 H118       24.3212    0.4878  -10.3716 H         1 UNK         0.0810 
    119 H119       25.6670   -0.6479  -10.2884 H         1 UNK         0.0810 
    120 H120       28.2000   -0.0221   -9.8371 H         1 UNK         0.3040 
    121 H121       29.8223   -0.0939  -12.3467 H         1 UNK         0.0766 
    122 H122       29.9928   -1.8473   -9.8368 H         1 UNK         0.0812 
    123 H123       30.9500   -2.0171  -11.2980 H         1 UNK         0.0812 
    124 H124       29.2184   -2.3073  -11.3514 H         1 UNK         0.0812 
    125 H125       29.8402    0.7234   -8.9280 H         1 UNK         0.3205 
    126 H126       30.8297    2.2891   -7.7452 H         1 UNK         0.0754 
    127 H127       32.5157    3.8717   -8.5104 H         1 UNK         0.0769 
    128 H128       31.2360    3.7709   -9.7109 H         1 UNK         0.0769 
    129 H129       32.7841    2.9694   -9.9892 H         1 UNK         0.0769 
    130 H130       32.1090    1.8870   -6.0586 H         1 UNK         0.2981 
    131 H131       33.9219   -0.3703   -6.0710 H         1 UNK         0.0541 
    132 H132       36.2306   -0.3394   -5.6759 H         1 UNK         0.3459 
    133 H133       37.1635    1.0968   -6.0033 H         1 UNK         0.3459 
    134 H134       33.2260    1.6488   -3.8750 H         1 UNK         0.0612 
    135 H135       34.2816    0.2815   -3.6337 H         1 UNK         0.0612 
    136 H136       33.2906   -1.9388   -2.5521 H         1 UNK         0.0624 
    137 H137       33.6177   -2.1594   -4.2558 H         1 UNK         0.0624 
@<TRIPOS>BOND
     1    1    2 1    
     2    1   72 1    
     3    1   73 1    
     4    1   74 1    
     5    2    3 2    
     6    2    4 am   BACKBONE|DICT|INTERRES
     7    4    5 1    
     8    4   75 1    
     9    5    6 1    
    10    5   35 1    
    11    5   76 1    
    12    6    7 1    
    13    6   77 1    
    14    6   78 1    
    15    7    8 1    
    16    8    9 1    
    17    8   79 1    
    18    8   80 1    
    19    9   10 ar   
    20    9   14 ar   
    21   10   11 ar   
    22   10   81 1    
    23   11   12 ar   
    24   11   71 1    
    25   12   13 ar   
    26   12   82 1    
    27   13   14 ar   
    28   13   15 1    
    29   14   83 1    
    30   15   16 1    
    31   15   84 1    
    32   15   85 1    
    33   16   17 1    
    34   17   18 1    
    35   17   86 1    
    36   17   87 1    
    37   18   19 1    
    38   18   37 1    
    39   18   88 1    
    40   19   20 am   BACKBONE|DICT|INTERRES
    41   19   89 1    
    42   20   21 2    
    43   20   22 1    
    44   22   23 1    
    45   22   24 1    
    46   22   90 1    
    47   23   91 1    
    48   23   92 1    
    49   23   93 1    
    50   24   25 am   BACKBONE|DICT|INTERRES
    51   24   94 1    
    52   25   26 2    
    53   25   27 1    
    54   27   28 1    
    55   27   29 1    
    56   27   95 1    
    57   28   96 1    
    58   28   97 1    
    59   28   98 1    
    60   29   30 am   BACKBONE|DICT|INTERRES
    61   29   99 1    
    62   30   31 2    
    63   30   32 1    
    64   32   33 1    
    65   32   34 1    
    66   32  100 1    
    67   33  101 1    
    68   33  102 1    
    69   33  103 1    
    70   34   35 am   BACKBONE|DICT|INTERRES
    71   34  104 1    
    72   35   36 2    
    73   37   38 2    
    74   37   39 am   BACKBONE|DICT|INTERRES
    75   39   40 1    
    76   39  105 1    
    77   40   41 1    
    78   40   42 1    
    79   40  106 1    
    80   41  107 1    
    81   41  108 1    
    82   41  109 1    
    83   42   43 2    
    84   42   44 am   BACKBONE|DICT|INTERRES
    85   44   45 1    
    86   44  110 1    
    87   45   46 1    
    88   45   47 1    
    89   45  111 1    
    90   46  112 1    
    91   46  113 1    
    92   46  114 1    
    93   47   48 2    
    94   47   49 am   BACKBONE|DICT|INTERRES
    95   49   50 1    
    96   49  115 1    
    97   50   51 1    
    98   50   52 1    
    99   50  116 1    
   100   51  117 1    
   101   51  118 1    
   102   51  119 1    
   103   52   53 2    
   104   52   54 am   BACKBONE|DICT|INTERRES
   105   54   55 1    
   106   54  120 1    
   107   55   56 1    
   108   55   57 1    
   109   55  121 1    
   110   56  122 1    
   111   56  123 1    
   112   56  124 1    
   113   57   58 2    
   114   57   59 am   BACKBONE|DICT|INTERRES
   115   59   60 1    
   116   59  125 1    
   117   60   61 1    
   118   60   62 1    
   119   60  126 1    
   120   61  127 1    
   121   61  128 1    
   122   61  129 1    
   123   62   63 2    
   124   62   64 am   BACKBONE|DICT|INTERRES
   125   64   65 1    
   126   64  130 1    
   127   65   66 1    
   128   65   69 1    
   129   65  131 1    
   130   66   67 am   BACKBONE|DICT|INTERRES
   131   66   68 2    
   132   67  132 1    
   133   67  133 1    
   134   69   70 1    
   135   69  134 1    
   136   69  135 1    
   137   70   71 1    
   138   71  136 1    
   139   71  137 1    
@<TRIPOS>SUBSTRUCTURE
     1 UNK         1 GROUP             0       ****    0 ROOT    
