@<TRIPOS>MOLECULE
3R137
137   139    1
SMALL
USER_CHARGES


@<TRIPOS>ATOM
      1 CA         23.1764   -5.8635   -2.5784 C.3       0 UNK        -0.2020 
      2 C          24.1409   -4.6931   -2.4778 C.2       0 UNK         0.4855 
      3 O          23.8318   -3.6057   -2.9680 O.2       0 UNK        -0.5197 
      4 N          25.2957   -4.8968   -1.8242 N.am      1 UNK        -0.4892 
      5 CA         26.4143   -3.9451   -1.6804 C.3       1 UNK         0.0835 
      6 C6         27.1709   -3.7145   -3.0168 C.3       12 UNK        -0.0855 
      7 S7         28.0003   -5.2091   -3.6521 S.3       12 UNK        -0.2931 
      8 C8         29.6181   -5.1362   -2.8098 C.3       12 UNK         0.0378 
      9 C9         30.4802   -3.9694   -3.2782 C.ar      12 UNK        -0.0802 
     10 C10        31.3089   -4.1038   -4.3971 C.ar      12 UNK        -0.0944 
     11 C11        32.1288   -3.0452   -4.8038 C.ar      12 UNK        -0.0787 
     12 C12        32.0921   -1.8362   -4.1031 C.ar      12 UNK        -0.0862 
     13 C13        31.2560   -1.6851   -2.9940 C.ar      12 UNK        -0.0733 
     14 C14        30.4743   -2.7628   -2.5712 C.ar      12 UNK        -0.0832 
     15 C15        31.2049   -0.3622   -2.2447 C.3       12 UNK         0.0240 
     16 S16        30.3506    0.9330   -3.1992 S.3       12 UNK        -0.2522 
     17 C17        28.6448    0.2854   -3.3337 C.3       12 UNK        -0.0967 
     18 CA         28.2148   -0.0310   -4.7909 C.3       5 UNK         0.0660 
     19 N          26.9328   -0.7475   -4.8374 N.am      5 UNK        -0.4015 
     20 C          26.3447   -1.1907   -5.9610 C.2       4 UNK         0.4946 
     21 O          26.8833   -1.1555   -7.0666 O.2       4 UNK        -0.5353 
     22 CA         24.8891   -1.6852   -5.8794 C.3       4 UNK         0.0277 
     23 CB         24.7633   -3.1777   -6.2318 C.3       4 UNK        -0.1981 
     24 N          24.2002   -1.3984   -4.6171 N.am      4 UNK        -0.4209 
     25 C          23.8247   -0.1706   -4.2272 C.2       3 UNK         0.4942 
     26 O          24.1661    0.8584   -4.8128 O.2       3 UNK        -0.5208 
     27 CA         22.9311   -0.0670   -2.9850 C.3       3 UNK         0.0250 
     28 CB         21.4940   -0.5035   -3.3161 C.3       3 UNK        -0.1990 
     29 N          23.4450   -0.8812   -1.8829 N.am      3 UNK        -0.4232 
     30 C          23.7655   -0.4096   -0.6688 C.2       2 UNK         0.4993 
     31 O          23.6368    0.7690   -0.3346 O.2       2 UNK        -0.5286 
     32 CA         24.3229   -1.4116    0.3629 C.3       2 UNK         0.0209 
     33 CB         23.2188   -1.8425    1.3425 C.3       2 UNK        -0.1931 
     34 N          24.9256   -2.6074   -0.2330 N.am      2 UNK        -0.4546 
     35 C          26.0163   -2.6057   -1.0122 C.2       1 UNK         0.5154 
     36 O          26.6776   -1.5897   -1.2301 O.2       1 UNK        -0.5181 
     37 C          28.1651    1.2485   -5.6561 C.2       5 UNK         0.5014 
     38 O          29.0726    1.4778   -6.4561 O.2       5 UNK        -0.5248 
     39 N          27.0805    2.0269   -5.5148 N.am      6 UNK        -0.4434 
     40 CA         26.8423    3.2554   -6.2746 C.3       6 UNK         0.0363 
     41 CB         25.7314    4.0678   -5.5906 C.3       6 UNK        -0.1936 
     42 C          26.4883    2.9928   -7.7477 C.2       6 UNK         0.5081 
     43 O          26.7886    3.8341   -8.5945 O.2       6 UNK        -0.5248 
     44 N          25.8591    1.8428   -8.0297 N.am      7 UNK        -0.4718 
     45 CA         25.5307    1.3995   -9.3861 C.3       7 UNK         0.0273 
     46 CB         24.4734    0.2846   -9.3351 C.3       7 UNK        -0.1935 
     47 C          26.7786    0.9358  -10.1537 C.2       7 UNK         0.5018 
     48 O          26.9297    1.2883  -11.3240 O.2       7 UNK        -0.5186 
     49 N          27.6450    0.1617   -9.4835 N.am      8 UNK        -0.4240 
     50 CA         28.9173   -0.3168  -10.0215 C.3       8 UNK         0.0235 
     51 CB         29.4644   -1.4480   -9.1363 C.3       8 UNK        -0.2000 
     52 C          29.9405    0.8183  -10.1696 C.2       8 UNK         0.4941 
     53 O          30.4634    1.0140  -11.2679 O.2       8 UNK        -0.5273 
     54 N          30.1946    1.5444   -9.0691 N.am      9 UNK        -0.4262 
     55 CA         31.0850    2.7017   -8.9008 C.3       9 UNK         0.0264 
     56 CB         30.5706    3.9139   -9.7010 C.3       9 UNK        -0.1955 
     57 C          32.5745    2.4353   -9.1892 C.2       9 UNK         0.5031 
     58 O          33.4148    2.6735   -8.3202 O.2       9 UNK        -0.5390 
     59 N          32.8785    1.9544  -10.3999 N.am      10 UNK        -0.4204 
     60 CA         34.2232    1.7334  -10.9371 C.3       10 UNK         0.0237 
     61 CB         34.1130    1.3810  -12.4294 C.3       10 UNK        -0.1985 
     62 C          35.0425    0.6663  -10.1922 C.2       10 UNK         0.4970 
     63 O          36.2718    0.7095  -10.2591 O.2       10 UNK        -0.4914 
     64 N          34.3663   -0.2611   -9.5013 N.am      11 UNK        -0.4285 
     65 CA         34.9985   -1.2802   -8.6528 C.3       11 UNK         0.1007 
     66 C          35.5791   -0.7416   -7.3096 C.2       11 UNK         0.5703 
     67 N          35.3008    0.4945   -6.9070 N.am      11 UNK        -0.7361 
     68 O          36.3097   -1.4574   -6.6290 O.2       11 UNK        -0.4986 
     69 C69        34.0836   -2.5215   -8.4731 C.3       12 UNK        -0.0947 
     70 S70        32.6141   -2.2428   -7.4232 S.3       12 UNK        -0.2240 
     71 C71        33.0957   -3.2175   -5.9641 C.3       12 UNK         0.0194 
     72 H72        23.5660   -6.7578   -2.0926 H         1 UNK         0.0906 
     73 H73        22.2265   -5.6073   -2.1102 H         1 UNK         0.0906 
     74 H74        22.9874   -6.1004   -3.6250 H         1 UNK         0.0906 
     75 H75        25.4717   -5.8124   -1.4326 H         1 UNK         0.3140 
     76 H76        27.1140   -4.4021   -0.9791 H         1 UNK         0.1085 
     77 H77        27.9082   -2.9211   -2.9387 H         1 UNK         0.0836 
     78 H78        26.4756   -3.3647   -3.7742 H         1 UNK         0.0836 
     79 H79        30.1463   -6.0734   -2.9915 H         1 UNK         0.0731 
     80 H80        29.4636   -5.0857   -1.7310 H         1 UNK         0.0731 
     81 H81        31.3300   -5.0407   -4.9371 H         1 UNK         0.1312 
     82 H82        32.7154   -1.0116   -4.4226 H         1 UNK         0.1406 
     83 H83        29.8468   -2.6561   -1.6965 H         1 UNK         0.1631 
     84 H84        32.2221   -0.0300   -2.0326 H         1 UNK         0.0717 
     85 H85        30.7135   -0.4774   -1.2772 H         1 UNK         0.0717 
     86 H86        28.5697   -0.6138   -2.7246 H         1 UNK         0.0934 
     87 H87        27.9648    1.0046   -2.8732 H         1 UNK         0.0934 
     88 H88        28.9632   -0.6960   -5.2288 H         1 UNK         0.0739 
     89 H89        26.4146   -0.8049   -3.9730 H         1 UNK         0.3093 
     90 H90        24.3494   -1.1371   -6.6533 H         1 UNK         0.0818 
     91 H91        25.2151   -3.8279   -5.4857 H         1 UNK         0.0819 
     92 H92        23.7177   -3.4695   -6.3306 H         1 UNK         0.0819 
     93 H93        25.2474   -3.3956   -7.1849 H         1 UNK         0.0819 
     94 H94        23.9246   -2.2081   -4.0618 H         1 UNK         0.3041 
     95 H95        22.9041    0.9875   -2.7024 H         1 UNK         0.0784 
     96 H96        21.0915    0.0736   -4.1499 H         1 UNK         0.0793 
     97 H97        21.4425   -1.5580   -3.5911 H         1 UNK         0.0793 
     98 H98        20.8305   -0.3486   -2.4652 H         1 UNK         0.0793 
     99 H99        23.5933   -1.8675   -2.0761 H         1 UNK         0.3024 
    100 H100       25.1009   -0.8905    0.9259 H         1 UNK         0.1171 
    101 H101       23.6144   -2.4827    2.1312 H         1 UNK         0.0786 
    102 H102       22.7673   -0.9759    1.8279 H         1 UNK         0.0786 
    103 H103       22.4194   -2.3853    0.8362 H         1 UNK         0.0786 
    104 H104       24.4338   -3.4808   -0.1095 H         1 UNK         0.2977 
    105 H105       26.3407    1.7345   -4.8890 H         1 UNK         0.3127 
    106 H106       27.7594    3.8487   -6.2581 H         1 UNK         0.0770 
    107 H107       24.7883    3.5201   -5.5639 H         1 UNK         0.0814 
    108 H108       25.5499    5.0035   -6.1213 H         1 UNK         0.0814 
    109 H109       26.0002    4.3246   -4.5658 H         1 UNK         0.0814 
    110 H110       25.6503    1.2106   -7.2710 H         1 UNK         0.2983 
    111 H111       25.1011    2.2469   -9.9257 H         1 UNK         0.0947 
    112 H112       24.1313    0.0337  -10.3400 H         1 UNK         0.0806 
    113 H113       23.5976    0.5885   -8.7615 H         1 UNK         0.0806 
    114 H114       24.8679   -0.6310   -8.8945 H         1 UNK         0.0806 
    115 H115       27.4083   -0.1376   -8.5394 H         1 UNK         0.3000 
    116 H116       28.7302   -0.7289  -11.0156 H         1 UNK         0.0850 
    117 H117       30.4051   -1.8323   -9.5323 H         1 UNK         0.0810 
    118 H118       28.7672   -2.2847   -9.0889 H         1 UNK         0.0810 
    119 H119       29.6483   -1.1147   -8.1137 H         1 UNK         0.0810 
    120 H120       29.7044    1.2914   -8.2123 H         1 UNK         0.3040 
    121 H121       31.0191    2.9631   -7.8433 H         1 UNK         0.0766 
    122 H122       29.5535    4.1746   -9.4074 H         1 UNK         0.0812 
    123 H123       30.5686    3.7267  -10.7752 H         1 UNK         0.0812 
    124 H124       31.1940    4.7914   -9.5245 H         1 UNK         0.0812 
    125 H125       32.0898    1.7129  -11.0004 H         1 UNK         0.3205 
    126 H126       34.7683    2.6753  -10.8472 H         1 UNK         0.0754 
    127 H127       35.0992    1.2345  -12.8724 H         1 UNK         0.0769 
    128 H128       33.6232    2.1776  -12.9899 H         1 UNK         0.0769 
    129 H129       33.5444    0.4631  -12.5851 H         1 UNK         0.0769 
    130 H130       33.3588   -0.2206   -9.4789 H         1 UNK         0.2981 
    131 H131       35.8702   -1.6376   -9.2045 H         1 UNK         0.0541 
    132 H132       34.7028    1.0997   -7.4549 H         1 UNK         0.3459 
    133 H133       35.6918    0.8278   -6.0407 H         1 UNK         0.3459 
    134 H134       34.6662   -3.3522   -8.0710 H         1 UNK         0.0612 
    135 H135       33.7354   -2.8647   -9.4484 H         1 UNK         0.0612 
    136 H136       34.0915   -2.9145   -5.6380 H         1 UNK         0.0624 
    137 H137       33.1710   -4.2680   -6.2493 H         1 UNK         0.0624 
@<TRIPOS>BOND
     1    1    2 1    
     2    1   72 1    
     3    1   73 1    
     4    1   74 1    
     5    2    3 2    
     6    2    4 am   BACKBONE|DICT|INTERRES
     7    4    5 1    
     8    4   75 1    
     9    5    6 1    
    10    5   35 1    
    11    5   76 1    
    12    6    7 1    
    13    6   77 1    
    14    6   78 1    
    15    7    8 1    
    16    8    9 1    
    17    8   79 1    
    18    8   80 1    
    19    9   10 ar   
    20    9   14 ar   
    21   10   11 ar   
    22   10   81 1    
    23   11   12 ar   
    24   11   71 1    
    25   12   13 ar   
    26   12   82 1    
    27   13   14 ar   
    28   13   15 1    
    29   14   83 1    
    30   15   16 1    
    31   15   84 1    
    32   15   85 1    
    33   16   17 1    
    34   17   18 1    
    35   17   86 1    
    36   17   87 1    
    37   18   19 1    
    38   18   37 1    
    39   18   88 1    
    40   19   20 am   BACKBONE|DICT|INTERRES
    41   19   89 1    
    42   20   21 2    
    43   20   22 1    
    44   22   23 1    
    45   22   24 1    
    46   22   90 1    
    47   23   91 1    
    48   23   92 1    
    49   23   93 1    
    50   24   25 am   BACKBONE|DICT|INTERRES
    51   24   94 1    
    52   25   26 2    
    53   25   27 1    
    54   27   28 1    
    55   27   29 1    
    56   27   95 1    
    57   28   96 1    
    58   28   97 1    
    59   28   98 1    
    60   29   30 am   BACKBONE|DICT|INTERRES
    61   29   99 1    
    62   30   31 2    
    63   30   32 1    
    64   32   33 1    
    65   32   34 1    
    66   32  100 1    
    67   33  101 1    
    68   33  102 1    
    69   33  103 1    
    70   34   35 am   BACKBONE|DICT|INTERRES
    71   34  104 1    
    72   35   36 2    
    73   37   38 2    
    74   37   39 am   BACKBONE|DICT|INTERRES
    75   39   40 1    
    76   39  105 1    
    77   40   41 1    
    78   40   42 1    
    79   40  106 1    
    80   41  107 1    
    81   41  108 1    
    82   41  109 1    
    83   42   43 2    
    84   42   44 am   BACKBONE|DICT|INTERRES
    85   44   45 1    
    86   44  110 1    
    87   45   46 1    
    88   45   47 1    
    89   45  111 1    
    90   46  112 1    
    91   46  113 1    
    92   46  114 1    
    93   47   48 2    
    94   47   49 am   BACKBONE|DICT|INTERRES
    95   49   50 1    
    96   49  115 1    
    97   50   51 1    
    98   50   52 1    
    99   50  116 1    
   100   51  117 1    
   101   51  118 1    
   102   51  119 1    
   103   52   53 2    
   104   52   54 am   BACKBONE|DICT|INTERRES
   105   54   55 1    
   106   54  120 1    
   107   55   56 1    
   108   55   57 1    
   109   55  121 1    
   110   56  122 1    
   111   56  123 1    
   112   56  124 1    
   113   57   58 2    
   114   57   59 am   BACKBONE|DICT|INTERRES
   115   59   60 1    
   116   59  125 1    
   117   60   61 1    
   118   60   62 1    
   119   60  126 1    
   120   61  127 1    
   121   61  128 1    
   122   61  129 1    
   123   62   63 2    
   124   62   64 am   BACKBONE|DICT|INTERRES
   125   64   65 1    
   126   64  130 1    
   127   65   66 1    
   128   65   69 1    
   129   65  131 1    
   130   66   67 am   BACKBONE|DICT|INTERRES
   131   66   68 2    
   132   67  132 1    
   133   67  133 1    
   134   69   70 1    
   135   69  134 1    
   136   69  135 1    
   137   70   71 1    
   138   71  136 1    
   139   71  137 1    
@<TRIPOS>SUBSTRUCTURE
     1 UNK         1 GROUP             0       ****    0 ROOT    
