@<TRIPOS>MOLECULE
3R137
137   139    1
SMALL
USER_CHARGES


@<TRIPOS>ATOM
      1 CA         24.8655   -5.9433   -4.4316 C.3       0 UNK        -0.2020 
      2 C          25.3300   -5.1155   -3.2435 C.2       0 UNK         0.4855 
      3 O          24.5072   -4.4872   -2.5766 O.2       0 UNK        -0.5197 
      4 N          26.6437   -5.0950   -2.9792 N.am      1 UNK        -0.4892 
      5 CA         27.2754   -4.3106   -1.9122 C.3       1 UNK         0.0835 
      6 C6         28.7781   -4.6533   -1.7817 C.3       12 UNK        -0.0855 
      7 S7         29.5039   -4.0216   -0.2294 S.3       12 UNK        -0.2931 
      8 C8         31.2491   -3.7820   -0.6979 C.3       12 UNK         0.0378 
      9 C9         31.4232   -2.7084   -1.7639 C.ar      12 UNK        -0.0802 
     10 C10        31.8018   -3.0612   -3.0625 C.ar      12 UNK        -0.0944 
     11 C11        31.9557   -2.0816   -4.0465 C.ar      12 UNK        -0.0787 
     12 C12        31.7439   -0.7397   -3.7220 C.ar      12 UNK        -0.0862 
     13 C13        31.3540   -0.3716   -2.4295 C.ar      12 UNK        -0.0733 
     14 C14        31.2046   -1.3627   -1.4533 C.ar      12 UNK        -0.0832 
     15 C15        31.0837    1.0875   -2.0699 C.3       12 UNK         0.0240 
     16 S16        30.1672    2.0216   -3.3452 S.3       12 UNK        -0.2522 
     17 C17        28.6613    1.0156   -3.5759 C.3       12 UNK        -0.0967 
     18 CA         28.3042    0.8416   -5.0758 C.3       5 UNK         0.0660 
     19 N          27.6043   -0.4256   -5.3256 N.am      5 UNK        -0.4015 
     20 C          27.1700   -0.8641   -6.5181 C.2       4 UNK         0.4946 
     21 O          27.3265   -0.2587   -7.5766 O.2       4 UNK        -0.5353 
     22 CA         26.3334   -2.1521   -6.5210 C.3       4 UNK         0.0277 
     23 CB         27.2144   -3.4066   -6.4122 C.3       4 UNK        -0.1981 
     24 N          25.3438   -2.1270   -5.4438 N.am      4 UNK        -0.4209 
     25 C          24.2165   -1.4005   -5.4833 C.2       3 UNK         0.4942 
     26 O          23.8401   -0.7753   -6.4745 O.2       3 UNK        -0.5208 
     27 CA         23.3810   -1.3290   -4.1937 C.3       3 UNK         0.0250 
     28 CB         22.2952   -2.4166   -4.1874 C.3       3 UNK        -0.1990 
     29 N          24.1993   -1.4302   -2.9811 N.am      3 UNK        -0.4232 
     30 C          25.0295   -0.4619   -2.5622 C.2       2 UNK         0.4993 
     31 O          25.1626    0.6154   -3.1412 O.2       2 UNK        -0.5286 
     32 CA         25.9001   -0.7540   -1.3264 C.3       2 UNK         0.0209 
     33 CB         25.1673   -0.3381   -0.0415 C.3       2 UNK        -0.1931 
     34 N          26.3223   -2.1535   -1.2191 N.am      2 UNK        -0.4546 
     35 C          27.0375   -2.8047   -2.1465 C.2       1 UNK         0.5154 
     36 O          27.4417   -2.2795   -3.1862 O.2       1 UNK        -0.5181 
     37 C          27.5254    2.0686   -5.6016 C.2       5 UNK         0.5014 
     38 O          28.1231    2.9663   -6.1960 O.2       5 UNK        -0.5248 
     39 N          26.1998    2.0706   -5.3963 N.am      6 UNK        -0.4434 
     40 CA         25.2727    3.0824   -5.9059 C.3       6 UNK         0.0363 
     41 CB         23.8882    2.8639   -5.2752 C.3       6 UNK        -0.1936 
     42 C          25.1618    3.1133   -7.4419 C.2       6 UNK         0.5081 
     43 O          24.8709    4.1760   -7.9924 O.2       6 UNK        -0.5248 
     44 N          25.3852    1.9715   -8.1089 N.am      7 UNK        -0.4718 
     45 CA         25.4182    1.8719   -9.5690 C.3       7 UNK         0.0273 
     46 CB         25.0809    0.4384  -10.0124 C.3       7 UNK        -0.1935 
     47 C          26.7766    2.3286  -10.1229 C.2       7 UNK         0.5018 
     48 O          26.8041    3.1365  -11.0527 O.2       7 UNK        -0.5186 
     49 N          27.8718    1.8360   -9.5302 N.am      8 UNK        -0.4240 
     50 CA         29.2416    2.2393   -9.8368 C.3       8 UNK         0.0235 
     51 CB         29.7322    1.5621  -11.1318 C.3       8 UNK        -0.2000 
     52 C          30.1363    1.8570   -8.6569 C.2       8 UNK         0.4941 
     53 O          30.1407    0.6917   -8.2631 O.2       8 UNK        -0.5273 
     54 N          30.9244    2.8128   -8.1463 N.am      9 UNK        -0.4262 
     55 CA         31.8113    2.6283   -6.9881 C.3       9 UNK         0.0264 
     56 CB         32.3987    3.9872   -6.5755 C.3       9 UNK        -0.1955 
     57 C          32.9336    1.5915   -7.1930 C.2       9 UNK         0.5031 
     58 O          33.4543    1.0650   -6.2101 O.2       9 UNK        -0.5390 
     59 N          33.2800    1.3100   -8.4553 N.am      10 UNK        -0.4204 
     60 CA         34.2092    0.2505   -8.8496 C.3       10 UNK         0.0237 
     61 CB         34.8479    0.6337  -10.1958 C.3       10 UNK        -0.1985 
     62 C          33.5447   -1.1379   -8.9481 C.2       10 UNK         0.4970 
     63 O          34.2717   -2.1243   -9.0749 O.2       10 UNK        -0.4914 
     64 N          32.2040   -1.2003   -8.9141 N.am      11 UNK        -0.4285 
     65 CA         31.3799   -2.3968   -9.1521 C.3       11 UNK         0.1007 
     66 C          31.5802   -3.0011  -10.5781 C.2       11 UNK         0.5703 
     67 N          31.2616   -4.2710  -10.7955 N.am      11 UNK        -0.7361 
     68 O          31.9684   -2.3089  -11.5182 O.2       11 UNK        -0.4986 
     69 C69        31.4727   -3.4291   -7.9895 C.3       12 UNK        -0.0947 
     70 S70        30.8037   -2.7653   -6.4308 S.3       12 UNK        -0.2240 
     71 C71        32.3150   -2.4772   -5.4681 C.3       12 UNK         0.0194 
     72 H72        24.1336   -6.6831   -4.1088 H         1 UNK         0.0906 
     73 H73        24.3949   -5.3005   -5.1751 H         1 UNK         0.0906 
     74 H74        25.6908   -6.4695   -4.9108 H         1 UNK         0.0906 
     75 H75        27.2756   -5.6134   -3.5726 H         1 UNK         0.3140 
     76 H76        26.7838   -4.5997   -0.9804 H         1 UNK         0.1085 
     77 H77        29.3283   -4.2788   -2.6461 H         1 UNK         0.0836 
     78 H78        28.9165   -5.7357   -1.7835 H         1 UNK         0.0836 
     79 H79        31.6627   -4.7347   -1.0330 H         1 UNK         0.0731 
     80 H80        31.8168   -3.4994    0.1897 H         1 UNK         0.0731 
     81 H81        31.9593   -4.1010   -3.3150 H         1 UNK         0.1312 
     82 H82        31.8556    0.0156   -4.4868 H         1 UNK         0.1406 
     83 H83        30.9042   -1.0929   -0.4497 H         1 UNK         0.1631 
     84 H84        32.0381    1.5846   -1.8926 H         1 UNK         0.0717 
     85 H85        30.5230    1.1525   -1.1361 H         1 UNK         0.0717 
     86 H86        28.8236    0.0393   -3.1190 H         1 UNK         0.0934 
     87 H87        27.8421    1.4649   -3.0113 H         1 UNK         0.0934 
     88 H88        29.2299    0.7722   -5.6509 H         1 UNK         0.0739 
     89 H89        27.4716   -1.0326   -4.5188 H         1 UNK         0.3093 
     90 H90        25.8040   -2.2027   -7.4753 H         1 UNK         0.0818 
     91 H91        27.9136   -3.4561   -7.2478 H         1 UNK         0.0819 
     92 H92        27.8056   -3.4193   -5.4967 H         1 UNK         0.0819 
     93 H93        26.6155   -4.3164   -6.4400 H         1 UNK         0.0819 
     94 H94        25.6125   -2.5562   -4.5691 H         1 UNK         0.3041 
     95 H95        22.8819   -0.3574   -4.1810 H         1 UNK         0.0784 
     96 H96        21.6310   -2.3053   -5.0456 H         1 UNK         0.0793 
     97 H97        22.7210   -3.4186   -4.2366 H         1 UNK         0.0793 
     98 H98        21.6779   -2.3572   -3.2909 H         1 UNK         0.0793 
     99 H99        24.1803   -2.3153   -2.4864 H         1 UNK         0.3024 
    100 H100       26.8029   -0.1468   -1.4152 H         1 UNK         0.1171 
    101 H101       25.8077   -0.4468    0.8340 H         1 UNK         0.0786 
    102 H102       24.8616    0.7083   -0.0887 H         1 UNK         0.0786 
    103 H103       24.2680   -0.9333    0.1225 H         1 UNK         0.0786 
    104 H104       26.0061   -2.6598   -0.4043 H         1 UNK         0.2977 
    105 H105       25.7991    1.3477   -4.8033 H         1 UNK         0.3127 
    106 H106       25.6430    4.0588   -5.5864 H         1 UNK         0.0770 
    107 H107       23.4772    1.8882   -5.5372 H         1 UNK         0.0814 
    108 H108       23.1792    3.6196   -5.6159 H         1 UNK         0.0814 
    109 H109       23.9321    2.9281   -4.1878 H         1 UNK         0.0814 
    110 H110       25.6696    1.1477   -7.5924 H         1 UNK         0.2983 
    111 H111       24.6513    2.5314   -9.9820 H         1 UNK         0.0947 
    112 H112       24.1167    0.1184   -9.6166 H         1 UNK         0.0806 
    113 H113       25.8300   -0.2824   -9.6860 H         1 UNK         0.0806 
    114 H114       25.0240    0.3741  -11.0997 H         1 UNK         0.0806 
    115 H115       27.7727    1.1578   -8.7736 H         1 UNK         0.3000 
    116 H116       29.2676    3.3235   -9.9660 H         1 UNK         0.0850 
    117 H117       30.7646    1.8368  -11.3511 H         1 UNK         0.0810 
    118 H118       29.1309    1.8583  -11.9913 H         1 UNK         0.0810 
    119 H119       29.6925    0.4744  -11.0554 H         1 UNK         0.0810 
    120 H120       30.8717    3.7464   -8.5287 H         1 UNK         0.3040 
    121 H121       31.1932    2.2637   -6.1657 H         1 UNK         0.0766 
    122 H122       33.0046    4.4246   -7.3699 H         1 UNK         0.0812 
    123 H123       31.6121    4.6970   -6.3185 H         1 UNK         0.0812 
    124 H124       33.0368    3.8847   -5.6964 H         1 UNK         0.0812 
    125 H125       32.8114    1.8071   -9.1983 H         1 UNK         0.3205 
    126 H126       35.0047    0.1783   -8.1047 H         1 UNK         0.0754 
    127 H127       35.5843   -0.1095  -10.5050 H         1 UNK         0.0769 
    128 H128       35.3653    1.5913  -10.1322 H         1 UNK         0.0769 
    129 H129       34.1039    0.7039  -10.9907 H         1 UNK         0.0769 
    130 H130       31.6648   -0.3558   -8.7491 H         1 UNK         0.2981 
    131 H131       30.3543   -2.0259   -9.1714 H         1 UNK         0.0541 
    132 H132       30.9187   -4.8581  -10.0522 H         1 UNK         0.3459 
    133 H133       31.3714   -4.6492  -11.7233 H         1 UNK         0.3459 
    134 H134       32.4976   -3.7745   -7.8487 H         1 UNK         0.0612 
    135 H135       30.8805   -4.3184   -8.2062 H         1 UNK         0.0612 
    136 H136       32.9277   -3.3798   -5.4646 H         1 UNK         0.0624 
    137 H137       32.9075   -1.6948   -5.9442 H         1 UNK         0.0624 
@<TRIPOS>BOND
     1    1    2 1    
     2    1   72 1    
     3    1   73 1    
     4    1   74 1    
     5    2    3 2    
     6    2    4 am   BACKBONE|DICT|INTERRES
     7    4    5 1    
     8    4   75 1    
     9    5    6 1    
    10    5   35 1    
    11    5   76 1    
    12    6    7 1    
    13    6   77 1    
    14    6   78 1    
    15    7    8 1    
    16    8    9 1    
    17    8   79 1    
    18    8   80 1    
    19    9   10 ar   
    20    9   14 ar   
    21   10   11 ar   
    22   10   81 1    
    23   11   12 ar   
    24   11   71 1    
    25   12   13 ar   
    26   12   82 1    
    27   13   14 ar   
    28   13   15 1    
    29   14   83 1    
    30   15   16 1    
    31   15   84 1    
    32   15   85 1    
    33   16   17 1    
    34   17   18 1    
    35   17   86 1    
    36   17   87 1    
    37   18   19 1    
    38   18   37 1    
    39   18   88 1    
    40   19   20 am   BACKBONE|DICT|INTERRES
    41   19   89 1    
    42   20   21 2    
    43   20   22 1    
    44   22   23 1    
    45   22   24 1    
    46   22   90 1    
    47   23   91 1    
    48   23   92 1    
    49   23   93 1    
    50   24   25 am   BACKBONE|DICT|INTERRES
    51   24   94 1    
    52   25   26 2    
    53   25   27 1    
    54   27   28 1    
    55   27   29 1    
    56   27   95 1    
    57   28   96 1    
    58   28   97 1    
    59   28   98 1    
    60   29   30 am   BACKBONE|DICT|INTERRES
    61   29   99 1    
    62   30   31 2    
    63   30   32 1    
    64   32   33 1    
    65   32   34 1    
    66   32  100 1    
    67   33  101 1    
    68   33  102 1    
    69   33  103 1    
    70   34   35 am   BACKBONE|DICT|INTERRES
    71   34  104 1    
    72   35   36 2    
    73   37   38 2    
    74   37   39 am   BACKBONE|DICT|INTERRES
    75   39   40 1    
    76   39  105 1    
    77   40   41 1    
    78   40   42 1    
    79   40  106 1    
    80   41  107 1    
    81   41  108 1    
    82   41  109 1    
    83   42   43 2    
    84   42   44 am   BACKBONE|DICT|INTERRES
    85   44   45 1    
    86   44  110 1    
    87   45   46 1    
    88   45   47 1    
    89   45  111 1    
    90   46  112 1    
    91   46  113 1    
    92   46  114 1    
    93   47   48 2    
    94   47   49 am   BACKBONE|DICT|INTERRES
    95   49   50 1    
    96   49  115 1    
    97   50   51 1    
    98   50   52 1    
    99   50  116 1    
   100   51  117 1    
   101   51  118 1    
   102   51  119 1    
   103   52   53 2    
   104   52   54 am   BACKBONE|DICT|INTERRES
   105   54   55 1    
   106   54  120 1    
   107   55   56 1    
   108   55   57 1    
   109   55  121 1    
   110   56  122 1    
   111   56  123 1    
   112   56  124 1    
   113   57   58 2    
   114   57   59 am   BACKBONE|DICT|INTERRES
   115   59   60 1    
   116   59  125 1    
   117   60   61 1    
   118   60   62 1    
   119   60  126 1    
   120   61  127 1    
   121   61  128 1    
   122   61  129 1    
   123   62   63 2    
   124   62   64 am   BACKBONE|DICT|INTERRES
   125   64   65 1    
   126   64  130 1    
   127   65   66 1    
   128   65   69 1    
   129   65  131 1    
   130   66   67 am   BACKBONE|DICT|INTERRES
   131   66   68 2    
   132   67  132 1    
   133   67  133 1    
   134   69   70 1    
   135   69  134 1    
   136   69  135 1    
   137   70   71 1    
   138   71  136 1    
   139   71  137 1    
@<TRIPOS>SUBSTRUCTURE
     1 UNK         1 GROUP             0       ****    0 ROOT    
