@<TRIPOS>MOLECULE
3R137
137   139    1
SMALL
USER_CHARGES


@<TRIPOS>ATOM
      1 CA         26.2086   -5.9168   -4.3867 C.3       0 UNK        -0.2020 
      2 C          26.1593   -4.8930   -3.2637 C.2       0 UNK         0.4855 
      3 O          25.0729   -4.4566   -2.8826 O.2       0 UNK        -0.5197 
      4 N          27.3275   -4.5067   -2.7320 N.am      1 UNK        -0.4892 
      5 CA         27.4951   -3.5377   -1.6412 C.3       1 UNK         0.0835 
      6 C6         28.9751   -3.3438   -1.1918 C.3       12 UNK        -0.0855 
      7 S7         30.0939   -4.7802   -1.3984 S.3       12 UNK        -0.2931 
      8 C8         30.6845   -4.6278   -3.1251 C.3       12 UNK         0.0378 
      9 C9         31.3773   -3.3036   -3.4196 C.ar      12 UNK        -0.0802 
     10 C10        32.7589   -3.1672   -3.2588 C.ar      12 UNK        -0.0944 
     11 C11        33.3986   -1.9613   -3.5776 C.ar      12 UNK        -0.0787 
     12 C12        32.6254   -0.8636   -3.9760 C.ar      12 UNK        -0.0862 
     13 C13        31.2414   -0.9852   -4.1255 C.ar      12 UNK        -0.0733 
     14 C14        30.6335   -2.2173   -3.8850 C.ar      12 UNK        -0.0832 
     15 C15        30.3847    0.1964   -4.5518 C.3       12 UNK         0.0240 
     16 S16        29.3886    0.8174   -3.1530 S.3       12 UNK        -0.2522 
     17 C17        28.1438    1.9429   -3.8900 C.3       12 UNK        -0.0967 
     18 CA         27.6452    1.5917   -5.3139 C.3       5 UNK         0.0660 
     19 N          27.1315    0.2218   -5.4235 N.am      5 UNK        -0.4015 
     20 C          26.8599   -0.3818   -6.5899 C.2       4 UNK         0.4946 
     21 O          27.0479    0.1390   -7.6896 O.2       4 UNK        -0.5353 
     22 CA         26.2251   -1.7783   -6.5231 C.3       4 UNK         0.0277 
     23 CB         27.2921   -2.8722   -6.3591 C.3       4 UNK        -0.1981 
     24 N          25.2321   -1.8697   -5.4506 N.am      4 UNK        -0.4209 
     25 C          24.0225   -1.2926   -5.5037 C.2       3 UNK         0.4942 
     26 O          23.5969   -0.6913   -6.4892 O.2       3 UNK        -0.5208 
     27 CA         23.1516   -1.3626   -4.2379 C.3       3 UNK         0.0250 
     28 CB         22.3066   -2.6459   -4.2300 C.3       3 UNK        -0.1990 
     29 N          23.9325   -1.2732   -3.0014 N.am      3 UNK        -0.4232 
     30 C          24.5880   -0.1714   -2.6058 C.2       2 UNK         0.4993 
     31 O          24.5799    0.8881   -3.2306 O.2       2 UNK        -0.5286 
     32 CA         25.4445   -0.2755   -1.3311 C.3       2 UNK         0.0209 
     33 CB         24.6097    0.0820   -0.0916 C.3       2 UNK        -0.1931 
     34 N          26.0826   -1.5825   -1.1343 N.am      2 UNK        -0.4546 
     35 C          26.8883   -2.1732   -2.0269 C.2       1 UNK         0.5154 
     36 O          27.1535   -1.6891   -3.1311 O.2       1 UNK        -0.5181 
     37 C          26.6144    2.6232   -5.8206 C.2       5 UNK         0.5014 
     38 O          26.9930    3.5442   -6.5447 O.2       5 UNK        -0.5248 
     39 N          25.3268    2.4264   -5.4943 N.am      6 UNK        -0.4434 
     40 CA         24.2019    3.2145   -6.0135 C.3       6 UNK         0.0363 
     41 CB         22.9113    2.8190   -5.2793 C.3       6 UNK        -0.1936 
     42 C          24.0133    3.0848   -7.5369 C.2       6 UNK         0.5081 
     43 O          23.6003    4.0512   -8.1776 O.2       6 UNK        -0.5248 
     44 N          24.3541    1.9154   -8.0961 N.am      7 UNK        -0.4718 
     45 CA         24.3938    1.6478   -9.5376 C.3       7 UNK         0.0273 
     46 CB         24.2266    0.1364   -9.7711 C.3       7 UNK        -0.1935 
     47 C          25.6694    2.1777  -10.2276 C.2       7 UNK         0.5018 
     48 O          25.8063    1.9957  -11.4381 O.2       7 UNK        -0.5186 
     49 N          26.5685    2.8184   -9.4644 N.am      8 UNK        -0.4240 
     50 CA         27.8381    3.4241   -9.8783 C.3       8 UNK         0.0235 
     51 CB         27.6161    4.5491  -10.9130 C.3       8 UNK        -0.2000 
     52 C          28.9113    2.4065  -10.3103 C.2       8 UNK         0.4941 
     53 O          29.8072    2.7645  -11.0785 O.2       8 UNK        -0.5273 
     54 N          28.8398    1.1753   -9.7873 N.am      9 UNK        -0.4262 
     55 CA         29.9218    0.1928   -9.8633 C.3       9 UNK         0.0264 
     56 CB         29.3147   -1.2193   -9.8763 C.3       9 UNK        -0.1955 
     57 C          30.8627    0.3745   -8.6611 C.2       9 UNK         0.5031 
     58 O          30.4848    1.0110   -7.6751 O.2       9 UNK        -0.5390 
     59 N          32.0643   -0.2037   -8.7447 N.am      10 UNK        -0.4204 
     60 CA         33.0451   -0.2291   -7.6638 C.3       10 UNK         0.0237 
     61 CB         33.8309    1.0929   -7.6144 C.3       10 UNK        -0.1985 
     62 C          33.9823   -1.4210   -7.8656 C.2       10 UNK         0.4970 
     63 O          34.2234   -1.8154   -9.0090 O.2       10 UNK        -0.4914 
     64 N          34.4975   -1.9573   -6.7544 N.am      11 UNK        -0.4285 
     65 CA         35.4334   -3.0892   -6.7222 C.3       11 UNK         0.1007 
     66 C          36.9210   -2.7311   -7.0066 C.2       11 UNK         0.5703 
     67 N          37.2859   -1.4622   -7.1448 N.am      11 UNK        -0.7361 
     68 O          37.7559   -3.6244   -7.1233 O.2       11 UNK        -0.4986 
     69 C69        35.2330   -3.9480   -5.4442 C.3       12 UNK        -0.0947 
     70 S70        35.9049   -3.2918   -3.8692 S.3       12 UNK        -0.2240 
     71 C71        34.9157   -1.8003   -3.4841 C.3       12 UNK         0.0194 
     72 H72        25.8410   -6.8788   -4.0315 H         1 UNK         0.0906 
     73 H73        25.5761   -5.5972   -5.2143 H         1 UNK         0.0906 
     74 H74        27.2202   -6.0557   -4.7673 H         1 UNK         0.0906 
     75 H75        28.1867   -4.9216   -3.0588 H         1 UNK         0.3140 
     76 H76        26.9344   -3.9390   -0.7943 H         1 UNK         0.1085 
     77 H77        29.4366   -2.4697   -1.6468 H         1 UNK         0.0836 
     78 H78        28.9762   -3.1021   -0.1277 H         1 UNK         0.0836 
     79 H79        29.8542   -4.7692   -3.8170 H         1 UNK         0.0731 
     80 H80        31.3737   -5.4498   -3.3250 H         1 UNK         0.0731 
     81 H81        33.3371   -4.0115   -2.9096 H         1 UNK         0.1312 
     82 H82        33.1000    0.0877   -4.1769 H         1 UNK         0.1406 
     83 H83        29.5646   -2.3119   -4.0131 H         1 UNK         0.1631 
     84 H84        29.7480   -0.1419   -5.3668 H         1 UNK         0.0717 
     85 H85        30.9981    1.0069   -4.9479 H         1 UNK         0.0717 
     86 H86        27.2997    1.9864   -3.1991 H         1 UNK         0.0934 
     87 H87        28.5770    2.9450   -3.8899 H         1 UNK         0.0934 
     88 H88        28.4971    1.6726   -5.9912 H         1 UNK         0.0739 
     89 H89        27.0081   -0.2967   -4.5584 H         1 UNK         0.3093 
     90 H90        25.7183   -1.9510   -7.4750 H         1 UNK         0.0818 
     91 H91        27.7786   -2.8280   -5.3866 H         1 UNK         0.0819 
     92 H92        26.8561   -3.8640   -6.4712 H         1 UNK         0.0819 
     93 H93        28.0713   -2.7792   -7.1158 H         1 UNK         0.0819 
     94 H94        25.5355   -2.2835   -4.5781 H         1 UNK         0.3041 
     95 H95        22.4691   -0.5104   -4.2623 H         1 UNK         0.0784 
     96 H96        21.6823   -2.7049   -5.1226 H         1 UNK         0.0793 
     97 H97        22.9281   -3.5415   -4.2089 H         1 UNK         0.0793 
     98 H98        21.6410   -2.6782   -3.3674 H         1 UNK         0.0793 
     99 H99        24.0310   -2.1203   -2.4577 H         1 UNK         0.3024 
    100 H100       26.2454    0.4610   -1.4275 H         1 UNK         0.1171 
    101 H101       24.1407    1.0604   -0.2063 H         1 UNK         0.0786 
    102 H102       25.2278    0.1256    0.8053 H         1 UNK         0.0786 
    103 H103       23.8134   -0.6427    0.0826 H         1 UNK         0.0786 
    104 H104       25.9028   -2.0444   -0.2541 H         1 UNK         0.2977 
    105 H105       25.0935    1.6970   -4.8222 H         1 UNK         0.3127 
    106 H106       24.4083    4.2648   -5.7977 H         1 UNK         0.0770 
    107 H107       22.6655    1.7684   -5.4364 H         1 UNK         0.0814 
    108 H108       22.0643    3.4092   -5.6314 H         1 UNK         0.0814 
    109 H109       22.9982    2.9858   -4.2056 H         1 UNK         0.0814 
    110 H110       24.6484    1.1576   -7.4921 H         1 UNK         0.2983 
    111 H111       23.5479    2.1546  -10.0068 H         1 UNK         0.0947 
    112 H112       24.1589   -0.0909  -10.8356 H         1 UNK         0.0806 
    113 H113       23.3173   -0.2399   -9.3022 H         1 UNK         0.0806 
    114 H114       25.0677   -0.4296   -9.3719 H         1 UNK         0.0806 
    115 H115       26.3759    2.8854   -8.4713 H         1 UNK         0.3000 
    116 H116       28.2385    3.8938   -8.9787 H         1 UNK         0.0850 
    117 H117       28.5349    5.1121  -11.0813 H         1 UNK         0.0810 
    118 H118       26.8621    5.2587  -10.5725 H         1 UNK         0.0810 
    119 H119       27.2975    4.1560  -11.8787 H         1 UNK         0.0810 
    120 H120       28.1125    0.9715   -9.1053 H         1 UNK         0.3040 
    121 H121       30.4939    0.3346  -10.7822 H         1 UNK         0.0766 
    122 H122       28.6103   -1.3392  -10.6987 H         1 UNK         0.0812 
    123 H123       28.7854   -1.4376   -8.9504 H         1 UNK         0.0812 
    124 H124       30.0864   -1.9803   -9.9972 H         1 UNK         0.0812 
    125 H125       32.3230   -0.7432   -9.5618 H         1 UNK         0.3205 
    126 H126       32.5155   -0.3702   -6.7223 H         1 UNK         0.0754 
    127 H127       34.5684    1.0832   -6.8115 H         1 UNK         0.0769 
    128 H128       33.1705    1.9408   -7.4335 H         1 UNK         0.0769 
    129 H129       34.3628    1.2781   -8.5475 H         1 UNK         0.0769 
    130 H130       34.2354   -1.5858   -5.8542 H         1 UNK         0.2981 
    131 H131       35.1542   -3.7397   -7.5532 H         1 UNK         0.0541 
    132 H132       38.2512   -1.2468   -7.3360 H         1 UNK         0.3459 
    133 H133       36.6103   -0.7215   -7.0638 H         1 UNK         0.3459 
    134 H134       34.1761   -4.1808   -5.3189 H         1 UNK         0.0612 
    135 H135       35.7095   -4.9174   -5.5974 H         1 UNK         0.0612 
    136 H136       35.1627   -1.4829   -2.4703 H         1 UNK         0.0624 
    137 H137       35.2527   -0.9971   -4.1409 H         1 UNK         0.0624 
@<TRIPOS>BOND
     1    1    2 1    
     2    1   72 1    
     3    1   73 1    
     4    1   74 1    
     5    2    3 2    
     6    2    4 am   BACKBONE|DICT|INTERRES
     7    4    5 1    
     8    4   75 1    
     9    5    6 1    
    10    5   35 1    
    11    5   76 1    
    12    6    7 1    
    13    6   77 1    
    14    6   78 1    
    15    7    8 1    
    16    8    9 1    
    17    8   79 1    
    18    8   80 1    
    19    9   10 ar   
    20    9   14 ar   
    21   10   11 ar   
    22   10   81 1    
    23   11   12 ar   
    24   11   71 1    
    25   12   13 ar   
    26   12   82 1    
    27   13   14 ar   
    28   13   15 1    
    29   14   83 1    
    30   15   16 1    
    31   15   84 1    
    32   15   85 1    
    33   16   17 1    
    34   17   18 1    
    35   17   86 1    
    36   17   87 1    
    37   18   19 1    
    38   18   37 1    
    39   18   88 1    
    40   19   20 am   BACKBONE|DICT|INTERRES
    41   19   89 1    
    42   20   21 2    
    43   20   22 1    
    44   22   23 1    
    45   22   24 1    
    46   22   90 1    
    47   23   91 1    
    48   23   92 1    
    49   23   93 1    
    50   24   25 am   BACKBONE|DICT|INTERRES
    51   24   94 1    
    52   25   26 2    
    53   25   27 1    
    54   27   28 1    
    55   27   29 1    
    56   27   95 1    
    57   28   96 1    
    58   28   97 1    
    59   28   98 1    
    60   29   30 am   BACKBONE|DICT|INTERRES
    61   29   99 1    
    62   30   31 2    
    63   30   32 1    
    64   32   33 1    
    65   32   34 1    
    66   32  100 1    
    67   33  101 1    
    68   33  102 1    
    69   33  103 1    
    70   34   35 am   BACKBONE|DICT|INTERRES
    71   34  104 1    
    72   35   36 2    
    73   37   38 2    
    74   37   39 am   BACKBONE|DICT|INTERRES
    75   39   40 1    
    76   39  105 1    
    77   40   41 1    
    78   40   42 1    
    79   40  106 1    
    80   41  107 1    
    81   41  108 1    
    82   41  109 1    
    83   42   43 2    
    84   42   44 am   BACKBONE|DICT|INTERRES
    85   44   45 1    
    86   44  110 1    
    87   45   46 1    
    88   45   47 1    
    89   45  111 1    
    90   46  112 1    
    91   46  113 1    
    92   46  114 1    
    93   47   48 2    
    94   47   49 am   BACKBONE|DICT|INTERRES
    95   49   50 1    
    96   49  115 1    
    97   50   51 1    
    98   50   52 1    
    99   50  116 1    
   100   51  117 1    
   101   51  118 1    
   102   51  119 1    
   103   52   53 2    
   104   52   54 am   BACKBONE|DICT|INTERRES
   105   54   55 1    
   106   54  120 1    
   107   55   56 1    
   108   55   57 1    
   109   55  121 1    
   110   56  122 1    
   111   56  123 1    
   112   56  124 1    
   113   57   58 2    
   114   57   59 am   BACKBONE|DICT|INTERRES
   115   59   60 1    
   116   59  125 1    
   117   60   61 1    
   118   60   62 1    
   119   60  126 1    
   120   61  127 1    
   121   61  128 1    
   122   61  129 1    
   123   62   63 2    
   124   62   64 am   BACKBONE|DICT|INTERRES
   125   64   65 1    
   126   64  130 1    
   127   65   66 1    
   128   65   69 1    
   129   65  131 1    
   130   66   67 am   BACKBONE|DICT|INTERRES
   131   66   68 2    
   132   67  132 1    
   133   67  133 1    
   134   69   70 1    
   135   69  134 1    
   136   69  135 1    
   137   70   71 1    
   138   71  136 1    
   139   71  137 1    
@<TRIPOS>SUBSTRUCTURE
     1 UNK         1 GROUP             0       ****    0 ROOT    
