@<TRIPOS>MOLECULE
3R137
137   139    1
SMALL
USER_CHARGES


@<TRIPOS>ATOM
      1 CA         24.1314   -3.1352    1.6652 C.3       0 UNK        -0.2020 
      2 C          25.4415   -2.3870    1.4687 C.2       0 UNK         0.4855 
      3 O          25.9279   -1.7448    2.3998 O.2       0 UNK        -0.5197 
      4 N          26.0142   -2.4626    0.2645 N.am      1 UNK        -0.4892 
      5 CA         27.2449   -1.7886   -0.1393 C.3       1 UNK         0.0835 
      6 C6         28.4962   -2.6177    0.2449 C.3       12 UNK        -0.0855 
      7 S7         30.0619   -1.6915    0.0822 S.3       12 UNK        -0.2931 
      8 C8         31.0583   -2.8067   -0.9605 C.3       12 UNK         0.0378 
      9 C9         30.6862   -2.7087   -2.4337 C.ar      12 UNK        -0.0802 
     10 C10        31.2736   -1.7319   -3.2399 C.ar      12 UNK        -0.0944 
     11 C11        30.9583   -1.6474   -4.5984 C.ar      12 UNK        -0.0787 
     12 C12        30.0534   -2.5577   -5.1555 C.ar      12 UNK        -0.0862 
     13 C13        29.4225   -3.5191   -4.3510 C.ar      12 UNK        -0.0733 
     14 C14        29.7628   -3.5938   -2.9960 C.ar      12 UNK        -0.0832 
     15 C15        28.3323   -4.4683   -4.8568 C.3       12 UNK         0.0240 
     16 S16        28.1737   -4.6628   -6.6651 S.3       12 UNK        -0.2522 
     17 C17        27.3074   -3.1443   -7.1839 C.3       12 UNK        -0.0967 
     18 CA         25.7657   -3.3018   -7.2233 C.3       5 UNK         0.0660 
     19 N          25.1827   -3.2059   -5.8830 N.am      5 UNK        -0.4015 
     20 C          23.9665   -3.6521   -5.5425 C.2       4 UNK         0.4946 
     21 O          23.2412   -4.3154   -6.2844 O.2       4 UNK        -0.5353 
     22 CA         23.4653   -3.2633   -4.1415 C.3       4 UNK         0.0277 
     23 CB         23.9295   -4.2870   -3.0923 C.3       4 UNK        -0.1981 
     24 N          23.9023   -1.9150   -3.7592 N.am      4 UNK        -0.4209 
     25 C          23.3725   -0.7893   -4.2674 C.2       3 UNK         0.4942 
     26 O          22.4219   -0.7805   -5.0491 O.2       3 UNK        -0.5208 
     27 CA         24.0016    0.5582   -3.8630 C.3       3 UNK         0.0250 
     28 CB         23.1829    1.2131   -2.7388 C.3       3 UNK        -0.1990 
     29 N          25.4007    0.4658   -3.4432 N.am      3 UNK        -0.4232 
     30 C          26.4257    0.1075   -4.2279 C.2       2 UNK         0.4993 
     31 O          26.3188   -0.1415   -5.4291 O.2       2 UNK        -0.5286 
     32 CA         27.7934   -0.0617   -3.5498 C.3       2 UNK         0.0209 
     33 CB         28.6396    1.2088   -3.7134 C.3       2 UNK        -0.1931 
     34 N          27.7392   -0.4415   -2.1322 N.am      2 UNK        -0.4546 
     35 C          27.1314   -1.5351   -1.6509 C.2       1 UNK         0.5154 
     36 O          26.4752   -2.3152   -2.3493 O.2       1 UNK        -0.5181 
     37 C          25.1543   -2.2455   -8.1679 C.2       5 UNK         0.5014 
     38 O          25.0122   -2.5184   -9.3602 O.2       5 UNK        -0.5248 
     39 N          24.8587   -1.0532   -7.6236 N.am      6 UNK        -0.4434 
     40 CA         24.5207    0.1965   -8.3171 C.3       6 UNK         0.0363 
     41 CB         23.2168    0.0663   -9.1319 C.3       6 UNK        -0.1936 
     42 C          25.7101    0.7322   -9.1414 C.2       6 UNK         0.5081 
     43 O          25.5106    1.3813  -10.1691 O.2       6 UNK        -0.5248 
     44 N          26.9308    0.4314   -8.6761 N.am      7 UNK        -0.4718 
     45 CA         28.1882    0.7286   -9.3633 C.3       7 UNK         0.0273 
     46 CB         29.1705   -0.4303   -9.1170 C.3       7 UNK        -0.1935 
     47 C          28.8203    2.0533   -8.9180 C.2       7 UNK         0.5018 
     48 O          29.6288    2.6030   -9.6662 O.2       7 UNK        -0.5186 
     49 N          28.4863    2.5272   -7.7077 N.am      8 UNK        -0.4240 
     50 CA         29.1105    3.6669   -7.0236 C.3       8 UNK         0.0235 
     51 CB         28.7457    5.0007   -7.7154 C.3       8 UNK        -0.2000 
     52 C          30.6261    3.4365   -6.8556 C.2       8 UNK         0.4941 
     53 O          31.0114    2.6452   -5.9974 O.2       8 UNK        -0.5273 
     54 N          31.4487    4.0919   -7.6841 N.am      9 UNK        -0.4262 
     55 CA         32.9036    3.9227   -7.7180 C.3       9 UNK         0.0264 
     56 CB         33.5478    5.2857   -8.0239 C.3       9 UNK        -0.1955 
     57 C          33.3782    2.8703   -8.7402 C.2       9 UNK         0.5031 
     58 O          34.5569    2.5108   -8.7103 O.2       9 UNK        -0.5390 
     59 N          32.4968    2.4002   -9.6390 N.am      10 UNK        -0.4204 
     60 CA         32.8565    1.5533  -10.7863 C.3       10 UNK         0.0237 
     61 CB         31.7052    1.5351  -11.8066 C.3       10 UNK        -0.1985 
     62 C          33.3041    0.1208  -10.4386 C.2       10 UNK         0.4970 
     63 O          33.8073   -0.5683  -11.3274 O.2       10 UNK        -0.4914 
     64 N          33.1409   -0.3061   -9.1786 N.am      11 UNK        -0.4285 
     65 CA         33.7056   -1.5628   -8.6610 C.3       11 UNK         0.1007 
     66 C          35.2604   -1.5670   -8.5315 C.2       11 UNK         0.5703 
     67 N          35.9365   -0.4228   -8.5753 N.am      11 UNK        -0.7361 
     68 O          35.8618   -2.6309   -8.4033 O.2       11 UNK        -0.4986 
     69 C69        33.0068   -2.0214   -7.3532 C.3       12 UNK        -0.0947 
     70 S70        33.2559   -0.8762   -5.9527 S.3       12 UNK        -0.2240 
     71 C71        31.5513   -0.5252   -5.4371 C.3       12 UNK         0.0194 
     72 H72        23.3392   -2.4392    1.9399 H         1 UNK         0.0906 
     73 H73        23.8222   -3.6614    0.7622 H         1 UNK         0.0906 
     74 H74        24.2342   -3.8676    2.4654 H         1 UNK         0.0906 
     75 H75        25.5707   -2.9681   -0.4934 H         1 UNK         0.3140 
     76 H76        27.2880   -0.8189    0.3624 H         1 UNK         0.1085 
     77 H77        28.5325   -3.5477   -0.3231 H         1 UNK         0.0836 
     78 H78        28.4238   -2.9212    1.2906 H         1 UNK         0.0836 
     79 H79        30.9603   -3.8336   -0.6049 H         1 UNK         0.0731 
     80 H80        32.1110   -2.5480   -0.8364 H         1 UNK         0.0731 
     81 H81        31.9729   -1.0291   -2.8077 H         1 UNK         0.1312 
     82 H82        29.8223   -2.4807   -6.2066 H         1 UNK         0.1406 
     83 H83        29.2915   -4.3401   -2.3716 H         1 UNK         0.1631 
     84 H84        27.3741   -4.1533   -4.4432 H         1 UNK         0.0717 
     85 H85        28.5230   -5.4618   -4.4483 H         1 UNK         0.0717 
     86 H86        27.5945   -2.3026   -6.5529 H         1 UNK         0.0934 
     87 H87        27.6947   -2.9180   -8.1791 H         1 UNK         0.0934 
     88 H88        25.5235   -4.2818   -7.6410 H         1 UNK         0.0739 
     89 H89        25.7034   -2.6759   -5.1998 H         1 UNK         0.3093 
     90 H90        22.3732   -3.2766   -4.1628 H         1 UNK         0.0818 
     91 H91        23.5351   -5.2782   -3.3199 H         1 UNK         0.0819 
     92 H92        23.5794   -4.0213   -2.0950 H         1 UNK         0.0819 
     93 H93        25.0157   -4.3739   -3.0575 H         1 UNK         0.0819 
     94 H94        24.7050   -1.8557   -3.1401 H         1 UNK         0.3041 
     95 H95        23.9622    1.2089   -4.7394 H         1 UNK         0.0784 
     96 H96        22.1379    1.3259   -3.0315 H         1 UNK         0.0793 
     97 H97        23.2026    0.6180   -1.8248 H         1 UNK         0.0793 
     98 H98        23.5588    2.2085   -2.5012 H         1 UNK         0.0793 
     99 H99        25.5954    0.6502   -2.4699 H         1 UNK         0.3024 
    100 H100       28.2912   -0.8742   -4.0748 H         1 UNK         0.1171 
    101 H101       29.6427    1.0726   -3.3091 H         1 UNK         0.0786 
    102 H102       28.7540    1.4650   -4.7670 H         1 UNK         0.0786 
    103 H103       28.1878    2.0658   -3.2126 H         1 UNK         0.0786 
    104 H104       28.2754    0.1298   -1.4943 H         1 UNK         0.2977 
    105 H105       25.1043   -0.9196   -6.6465 H         1 UNK         0.3127 
    106 H106       24.3433    0.9341   -7.5329 H         1 UNK         0.0770 
    107 H107       23.3391   -0.5856   -9.9970 H         1 UNK         0.0814 
    108 H108       22.8928    1.0386   -9.5047 H         1 UNK         0.0814 
    109 H109       22.4072   -0.3324   -8.5205 H         1 UNK         0.0814 
    110 H110       26.9893   -0.0700   -7.8005 H         1 UNK         0.2983 
    111 H111       28.0127    0.8023  -10.4391 H         1 UNK         0.0947 
    112 H112       30.1546   -0.2159   -9.5337 H         1 UNK         0.0806 
    113 H113       28.8200   -1.3472   -9.5901 H         1 UNK         0.0806 
    114 H114       29.3065   -0.6287   -8.0540 H         1 UNK         0.0806 
    115 H115       27.8166    1.9994   -7.1671 H         1 UNK         0.3000 
    116 H116       28.6926    3.6971   -6.0161 H         1 UNK         0.0850 
    117 H117       29.2026    5.8471   -7.2006 H         1 UNK         0.0810 
    118 H118       27.6678    5.1625   -7.6983 H         1 UNK         0.0810 
    119 H119       29.0617    5.0374   -8.7581 H         1 UNK         0.0810 
    120 H120       31.0411    4.6987   -8.3817 H         1 UNK         0.3040 
    121 H121       33.2576    3.5982   -6.7369 H         1 UNK         0.0766 
    122 H122       33.2740    6.0302   -7.2761 H         1 UNK         0.0812 
    123 H123       33.2484    5.6649   -9.0018 H         1 UNK         0.0812 
    124 H124       34.6365    5.2138   -8.0219 H         1 UNK         0.0812 
    125 H125       31.5203    2.6830   -9.5814 H         1 UNK         0.3205 
    126 H126       33.7113    2.0278  -11.2733 H         1 UNK         0.0754 
    127 H127       32.0051    1.0275  -12.7244 H         1 UNK         0.0769 
    128 H128       31.4009    2.5449  -12.0826 H         1 UNK         0.0769 
    129 H129       30.8286    1.0139  -11.4240 H         1 UNK         0.0769 
    130 H130       32.7548    0.3260   -8.4942 H         1 UNK         0.2981 
    131 H131       33.4821   -2.3300   -9.4050 H         1 UNK         0.0541 
    132 H132       35.4523    0.4618   -8.6609 H         1 UNK         0.3459 
    133 H133       36.9406   -0.4407   -8.4955 H         1 UNK         0.3459 
    134 H134       31.9395   -2.1469   -7.5393 H         1 UNK         0.0612 
    135 H135       33.3678   -3.0068   -7.0534 H         1 UNK         0.0612 
    136 H136       30.9320   -0.3075   -6.3076 H         1 UNK         0.0624 
    137 H137       31.5622    0.3865   -4.8397 H         1 UNK         0.0624 
@<TRIPOS>BOND
     1    1    2 1    
     2    1   72 1    
     3    1   73 1    
     4    1   74 1    
     5    2    3 2    
     6    2    4 am   BACKBONE|DICT|INTERRES
     7    4    5 1    
     8    4   75 1    
     9    5    6 1    
    10    5   35 1    
    11    5   76 1    
    12    6    7 1    
    13    6   77 1    
    14    6   78 1    
    15    7    8 1    
    16    8    9 1    
    17    8   79 1    
    18    8   80 1    
    19    9   10 ar   
    20    9   14 ar   
    21   10   11 ar   
    22   10   81 1    
    23   11   12 ar   
    24   11   71 1    
    25   12   13 ar   
    26   12   82 1    
    27   13   14 ar   
    28   13   15 1    
    29   14   83 1    
    30   15   16 1    
    31   15   84 1    
    32   15   85 1    
    33   16   17 1    
    34   17   18 1    
    35   17   86 1    
    36   17   87 1    
    37   18   19 1    
    38   18   37 1    
    39   18   88 1    
    40   19   20 am   BACKBONE|DICT|INTERRES
    41   19   89 1    
    42   20   21 2    
    43   20   22 1    
    44   22   23 1    
    45   22   24 1    
    46   22   90 1    
    47   23   91 1    
    48   23   92 1    
    49   23   93 1    
    50   24   25 am   BACKBONE|DICT|INTERRES
    51   24   94 1    
    52   25   26 2    
    53   25   27 1    
    54   27   28 1    
    55   27   29 1    
    56   27   95 1    
    57   28   96 1    
    58   28   97 1    
    59   28   98 1    
    60   29   30 am   BACKBONE|DICT|INTERRES
    61   29   99 1    
    62   30   31 2    
    63   30   32 1    
    64   32   33 1    
    65   32   34 1    
    66   32  100 1    
    67   33  101 1    
    68   33  102 1    
    69   33  103 1    
    70   34   35 am   BACKBONE|DICT|INTERRES
    71   34  104 1    
    72   35   36 2    
    73   37   38 2    
    74   37   39 am   BACKBONE|DICT|INTERRES
    75   39   40 1    
    76   39  105 1    
    77   40   41 1    
    78   40   42 1    
    79   40  106 1    
    80   41  107 1    
    81   41  108 1    
    82   41  109 1    
    83   42   43 2    
    84   42   44 am   BACKBONE|DICT|INTERRES
    85   44   45 1    
    86   44  110 1    
    87   45   46 1    
    88   45   47 1    
    89   45  111 1    
    90   46  112 1    
    91   46  113 1    
    92   46  114 1    
    93   47   48 2    
    94   47   49 am   BACKBONE|DICT|INTERRES
    95   49   50 1    
    96   49  115 1    
    97   50   51 1    
    98   50   52 1    
    99   50  116 1    
   100   51  117 1    
   101   51  118 1    
   102   51  119 1    
   103   52   53 2    
   104   52   54 am   BACKBONE|DICT|INTERRES
   105   54   55 1    
   106   54  120 1    
   107   55   56 1    
   108   55   57 1    
   109   55  121 1    
   110   56  122 1    
   111   56  123 1    
   112   56  124 1    
   113   57   58 2    
   114   57   59 am   BACKBONE|DICT|INTERRES
   115   59   60 1    
   116   59  125 1    
   117   60   61 1    
   118   60   62 1    
   119   60  126 1    
   120   61  127 1    
   121   61  128 1    
   122   61  129 1    
   123   62   63 2    
   124   62   64 am   BACKBONE|DICT|INTERRES
   125   64   65 1    
   126   64  130 1    
   127   65   66 1    
   128   65   69 1    
   129   65  131 1    
   130   66   67 am   BACKBONE|DICT|INTERRES
   131   66   68 2    
   132   67  132 1    
   133   67  133 1    
   134   69   70 1    
   135   69  134 1    
   136   69  135 1    
   137   70   71 1    
   138   71  136 1    
   139   71  137 1    
@<TRIPOS>SUBSTRUCTURE
     1 UNK         1 GROUP             0       ****    0 ROOT    
