@<TRIPOS>MOLECULE
3R137
137   139    1
SMALL
USER_CHARGES


@<TRIPOS>ATOM
      1 CA         22.6589   -5.4426   -0.6845 C.3       0 UNK        -0.2020 
      2 C          24.0213   -4.7986   -0.4786 C.2       0 UNK         0.4855 
      3 O          24.2506   -4.1617    0.5503 O.2       0 UNK        -0.5197 
      4 N          24.9277   -4.9424   -1.4544 N.am      1 UNK        -0.4892 
      5 CA         26.2915   -4.3961   -1.4460 C.3       1 UNK         0.0835 
      6 C6         27.2242   -5.2465   -2.3524 C.3       12 UNK        -0.0855 
      7 S7         28.9836   -5.1347   -1.8689 S.3       12 UNK        -0.2931 
      8 C8         29.8257   -4.9361   -3.4805 C.3       12 UNK         0.0378 
      9 C9         30.7852   -3.7496   -3.5095 C.ar      12 UNK        -0.0802 
     10 C10        32.0676   -3.8983   -4.0459 C.ar      12 UNK        -0.0944 
     11 C11        32.9487   -2.8142   -4.0914 C.ar      12 UNK        -0.0787 
     12 C12        32.5441   -1.5762   -3.5844 C.ar      12 UNK        -0.0862 
     13 C13        31.2637   -1.4014   -3.0526 C.ar      12 UNK        -0.0733 
     14 C14        30.3881   -2.4969   -3.0303 C.ar      12 UNK        -0.0832 
     15 C15        30.8929   -0.0201   -2.5057 C.3       12 UNK         0.0240 
     16 S16        29.1660    0.1561   -1.9404 S.3       12 UNK        -0.2522 
     17 C17        28.5924    1.6133   -2.8697 C.3       12 UNK        -0.0967 
     18 CA         28.4410    1.3989   -4.4004 C.3       5 UNK         0.0660 
     19 N          27.7737    0.1460   -4.7678 N.am      5 UNK        -0.4015 
     20 C          27.6895   -0.3341   -6.0186 C.2       4 UNK         0.4946 
     21 O          28.2231    0.1876   -6.9973 O.2       4 UNK        -0.5353 
     22 CA         26.8251   -1.5837   -6.2294 C.3       4 UNK         0.0277 
     23 CB         27.6555   -2.8556   -6.0020 C.3       4 UNK        -0.1981 
     24 N          25.6490   -1.5825   -5.3573 N.am      4 UNK        -0.4209 
     25 C          24.5991   -0.7619   -5.5189 C.2       3 UNK         0.4942 
     26 O          24.4962    0.0382   -6.4481 O.2       3 UNK        -0.5208 
     27 CA         23.4996   -0.8019   -4.4423 C.3       3 UNK         0.0250 
     28 CB         22.4702   -1.8971   -4.7625 C.3       3 UNK        -0.1990 
     29 N          24.0239   -1.0052   -3.0903 N.am      3 UNK        -0.4232 
     30 C          24.8593   -0.1669   -2.4605 C.2       2 UNK         0.4993 
     31 O          25.2237    0.9120   -2.9287 O.2       2 UNK        -0.5286 
     32 CA         25.4267   -0.6325   -1.1076 C.3       2 UNK         0.0209 
     33 CB         24.5560   -0.1099    0.0452 C.3       2 UNK        -0.1931 
     34 N          25.5828   -2.0881   -0.9766 N.am      2 UNK        -0.4546 
     35 C          26.2792   -2.8890   -1.7969 C.2       1 UNK         0.5154 
     36 O          26.8297   -2.4817   -2.8202 O.2       1 UNK        -0.5181 
     37 C          27.7263    2.6093   -5.0297 C.2       5 UNK         0.5014 
     38 O          28.3860    3.4583   -5.6291 O.2       5 UNK        -0.5248 
     39 N          26.3910    2.6479   -4.8987 N.am      6 UNK        -0.4434 
     40 CA         25.5170    3.6823   -5.4575 C.3       6 UNK         0.0363 
     41 CB         24.0824    3.4707   -4.9482 C.3       6 UNK        -0.1936 
     42 C          25.5459    3.7335   -6.9943 C.2       6 UNK         0.5081 
     43 O          25.5873    4.8252   -7.5620 O.2       6 UNK        -0.5248 
     44 N          25.5461    2.5586   -7.6389 N.am      7 UNK        -0.4718 
     45 CA         25.6688    2.4152   -9.0926 C.3       7 UNK         0.0273 
     46 CB         25.2100    1.0033   -9.4932 C.3       7 UNK        -0.1935 
     47 C          27.0921    2.6728   -9.6218 C.2       7 UNK         0.5018 
     48 O          27.2425    2.9159  -10.8198 O.2       7 UNK        -0.5186 
     49 N          28.0986    2.5756   -8.7386 N.am      8 UNK        -0.4240 
     50 CA         29.5403    2.5552   -9.0173 C.3       8 UNK         0.0235 
     51 CB         30.0259    3.9187   -9.5522 C.3       8 UNK        -0.2000 
     52 C          29.9263    1.3696   -9.9243 C.2       8 UNK         0.4941 
     53 O          30.7184    1.5287  -10.8557 O.2       8 UNK        -0.5273 
     54 N          29.3299    0.2021   -9.6471 N.am      9 UNK        -0.4262 
     55 CA         29.4657   -1.0248  -10.4286 C.3       9 UNK         0.0264 
     56 CB         28.3586   -2.0098  -10.0170 C.3       9 UNK        -0.1955 
     57 C          30.8640   -1.6313  -10.2464 C.2       9 UNK         0.5031 
     58 O          31.1374   -2.2182   -9.1974 O.2       9 UNK        -0.5390 
     59 N          31.7295   -1.4340  -11.2515 N.am      10 UNK        -0.4204 
     60 CA         33.1437   -1.8304  -11.3512 C.3       10 UNK         0.0237 
     61 CB         33.3168   -3.3596  -11.2578 C.3       10 UNK        -0.1985 
     62 C          34.0764   -1.1032  -10.3648 C.2       10 UNK         0.4970 
     63 O          35.1231   -0.6062  -10.7816 O.2       10 UNK        -0.4914 
     64 N          33.6808   -1.0443   -9.0909 N.am      11 UNK        -0.4285 
     65 CA         34.3884   -0.3672   -7.9961 C.3       11 UNK         0.1007 
     66 C          34.2566    1.1847   -8.0047 C.2       11 UNK         0.5703 
     67 N          33.4472    1.7898   -8.8670 N.am      11 UNK        -0.7361 
     68 O          34.9161    1.8581   -7.2166 O.2       11 UNK        -0.4986 
     69 C69        33.9824   -0.9572   -6.6207 C.3       12 UNK        -0.0947 
     70 S70        34.3323   -2.7442   -6.4903 S.3       12 UNK        -0.2240 
     71 C71        34.3396   -2.9802   -4.6857 C.3       12 UNK         0.0194 
     72 H72        21.8776   -4.6834   -0.6606 H         1 UNK         0.0906 
     73 H73        22.5940   -5.9664   -1.6380 H         1 UNK         0.0906 
     74 H74        22.4603   -6.1606    0.1107 H         1 UNK         0.0906 
     75 H75        24.6718   -5.4545   -2.2874 H         1 UNK         0.3140 
     76 H76        26.6696   -4.4725   -0.4236 H         1 UNK         0.1085 
     77 H77        26.9590   -6.3017   -2.2667 H         1 UNK         0.0836 
     78 H78        27.0801   -4.9990   -3.4052 H         1 UNK         0.0836 
     79 H79        29.1068   -4.8205   -4.2897 H         1 UNK         0.0731 
     80 H80        30.3623   -5.8625   -3.6906 H         1 UNK         0.0731 
     81 H81        32.3817   -4.8565   -4.4373 H         1 UNK         0.1312 
     82 H82        33.2300   -0.7403   -3.6100 H         1 UNK         0.1406 
     83 H83        29.3909   -2.3966   -2.6294 H         1 UNK         0.1631 
     84 H84        31.1109    0.7295   -3.2669 H         1 UNK         0.0717 
     85 H85        31.5460    0.2058   -1.6617 H         1 UNK         0.0717 
     86 H86        27.6411    1.9087   -2.4231 H         1 UNK         0.0934 
     87 H87        29.2774    2.4403   -2.6722 H         1 UNK         0.0934 
     88 H88        29.4420    1.3563   -4.8342 H         1 UNK         0.0739 
     89 H89        27.3294   -0.3660   -4.0174 H         1 UNK         0.3093 
     90 H90        26.4804   -1.5830   -7.2657 H         1 UNK         0.0818 
     91 H91        28.4953   -2.9052   -6.6958 H         1 UNK         0.0819 
     92 H92        28.0764   -2.8816   -4.9986 H         1 UNK         0.0819 
     93 H93        27.0587   -3.7563   -6.1446 H         1 UNK         0.0819 
     94 H94        25.7128   -2.1455   -4.5164 H         1 UNK         0.3041 
     95 H95        22.9894    0.1634   -4.4577 H         1 UNK         0.0784 
     96 H96        22.0496   -1.7559   -5.7593 H         1 UNK         0.0793 
     97 H97        22.9149   -2.8927   -4.7344 H         1 UNK         0.0793 
     98 H98        21.6391   -1.8794   -4.0572 H         1 UNK         0.0793 
     99 H99        23.7792   -1.8677   -2.6269 H         1 UNK         0.3024 
    100 H100       26.4193   -0.1906   -1.0111 H         1 UNK         0.1171 
    101 H101       25.0051   -0.3318    1.0135 H         1 UNK         0.0786 
    102 H102       24.4374    0.9732   -0.0142 H         1 UNK         0.0786 
    103 H103       23.5580   -0.5499    0.0291 H         1 UNK         0.0786 
    104 H104       25.1128   -2.5342   -0.1940 H         1 UNK         0.2977 
    105 H105       25.9402    1.9308   -4.3325 H         1 UNK         0.3127 
    106 H106       25.8717    4.6467   -5.0879 H         1 UNK         0.0770 
    107 H107       23.6777    2.5108   -5.2706 H         1 UNK         0.0814 
    108 H108       23.4162    4.2490   -5.3228 H         1 UNK         0.0814 
    109 H109       24.0391    3.5020   -3.8593 H         1 UNK         0.0814 
    110 H110       25.4296    1.7025   -7.1039 H         1 UNK         0.2983 
    111 H111       25.0061    3.1406   -9.5696 H         1 UNK         0.0947 
    112 H112       25.2639    0.8636  -10.5737 H         1 UNK         0.0806 
    113 H113       24.1776    0.8218   -9.1939 H         1 UNK         0.0806 
    114 H114       25.8314    0.2342   -9.0325 H         1 UNK         0.0806 
    115 H115       27.8493    2.3428   -7.7852 H         1 UNK         0.3000 
    116 H116       30.0329    2.3798   -8.0594 H         1 UNK         0.0850 
    117 H117       31.1124    3.9367   -9.6429 H         1 UNK         0.0810 
    118 H118       29.7428    4.7295   -8.8809 H         1 UNK         0.0810 
    119 H119       29.6153    4.1387  -10.5379 H         1 UNK         0.0810 
    120 H120       28.7809    0.1451   -8.7913 H         1 UNK         0.3040 
    121 H121       29.3181   -0.7789  -11.4825 H         1 UNK         0.0766 
    122 H122       27.3681   -1.5941  -10.2025 H         1 UNK         0.0812 
    123 H123       28.4210   -2.2660   -8.9599 H         1 UNK         0.0812 
    124 H124       28.4331   -2.9392  -10.5828 H         1 UNK         0.0812 
    125 H125       31.4024   -0.8646  -12.0212 H         1 UNK         0.3205 
    126 H126       33.4589   -1.5307  -12.3521 H         1 UNK         0.0754 
    127 H127       34.3547   -3.6439  -11.4362 H         1 UNK         0.0769 
    128 H128       32.7076   -3.8735  -12.0014 H         1 UNK         0.0769 
    129 H129       33.0422   -3.7449  -10.2753 H         1 UNK         0.0769 
    130 H130       32.7982   -1.4923   -8.8539 H         1 UNK         0.2981 
    131 H131       35.4534   -0.5656   -8.1304 H         1 UNK         0.0541 
    132 H132       32.9126    1.2601   -9.5374 H         1 UNK         0.3459 
    133 H133       33.3940    2.7954   -8.8608 H         1 UNK         0.3459 
    134 H134       32.9182   -0.7977   -6.4368 H         1 UNK         0.0612 
    135 H135       34.5180   -0.4486   -5.8170 H         1 UNK         0.0612 
    136 H136       34.7173   -3.9795   -4.4646 H         1 UNK         0.0624 
    137 H137       35.0414   -2.2818   -4.2272 H         1 UNK         0.0624 
@<TRIPOS>BOND
     1    1    2 1    
     2    1   72 1    
     3    1   73 1    
     4    1   74 1    
     5    2    3 2    
     6    2    4 am   BACKBONE|DICT|INTERRES
     7    4    5 1    
     8    4   75 1    
     9    5    6 1    
    10    5   35 1    
    11    5   76 1    
    12    6    7 1    
    13    6   77 1    
    14    6   78 1    
    15    7    8 1    
    16    8    9 1    
    17    8   79 1    
    18    8   80 1    
    19    9   10 ar   
    20    9   14 ar   
    21   10   11 ar   
    22   10   81 1    
    23   11   12 ar   
    24   11   71 1    
    25   12   13 ar   
    26   12   82 1    
    27   13   14 ar   
    28   13   15 1    
    29   14   83 1    
    30   15   16 1    
    31   15   84 1    
    32   15   85 1    
    33   16   17 1    
    34   17   18 1    
    35   17   86 1    
    36   17   87 1    
    37   18   19 1    
    38   18   37 1    
    39   18   88 1    
    40   19   20 am   BACKBONE|DICT|INTERRES
    41   19   89 1    
    42   20   21 2    
    43   20   22 1    
    44   22   23 1    
    45   22   24 1    
    46   22   90 1    
    47   23   91 1    
    48   23   92 1    
    49   23   93 1    
    50   24   25 am   BACKBONE|DICT|INTERRES
    51   24   94 1    
    52   25   26 2    
    53   25   27 1    
    54   27   28 1    
    55   27   29 1    
    56   27   95 1    
    57   28   96 1    
    58   28   97 1    
    59   28   98 1    
    60   29   30 am   BACKBONE|DICT|INTERRES
    61   29   99 1    
    62   30   31 2    
    63   30   32 1    
    64   32   33 1    
    65   32   34 1    
    66   32  100 1    
    67   33  101 1    
    68   33  102 1    
    69   33  103 1    
    70   34   35 am   BACKBONE|DICT|INTERRES
    71   34  104 1    
    72   35   36 2    
    73   37   38 2    
    74   37   39 am   BACKBONE|DICT|INTERRES
    75   39   40 1    
    76   39  105 1    
    77   40   41 1    
    78   40   42 1    
    79   40  106 1    
    80   41  107 1    
    81   41  108 1    
    82   41  109 1    
    83   42   43 2    
    84   42   44 am   BACKBONE|DICT|INTERRES
    85   44   45 1    
    86   44  110 1    
    87   45   46 1    
    88   45   47 1    
    89   45  111 1    
    90   46  112 1    
    91   46  113 1    
    92   46  114 1    
    93   47   48 2    
    94   47   49 am   BACKBONE|DICT|INTERRES
    95   49   50 1    
    96   49  115 1    
    97   50   51 1    
    98   50   52 1    
    99   50  116 1    
   100   51  117 1    
   101   51  118 1    
   102   51  119 1    
   103   52   53 2    
   104   52   54 am   BACKBONE|DICT|INTERRES
   105   54   55 1    
   106   54  120 1    
   107   55   56 1    
   108   55   57 1    
   109   55  121 1    
   110   56  122 1    
   111   56  123 1    
   112   56  124 1    
   113   57   58 2    
   114   57   59 am   BACKBONE|DICT|INTERRES
   115   59   60 1    
   116   59  125 1    
   117   60   61 1    
   118   60   62 1    
   119   60  126 1    
   120   61  127 1    
   121   61  128 1    
   122   61  129 1    
   123   62   63 2    
   124   62   64 am   BACKBONE|DICT|INTERRES
   125   64   65 1    
   126   64  130 1    
   127   65   66 1    
   128   65   69 1    
   129   65  131 1    
   130   66   67 am   BACKBONE|DICT|INTERRES
   131   66   68 2    
   132   67  132 1    
   133   67  133 1    
   134   69   70 1    
   135   69  134 1    
   136   69  135 1    
   137   70   71 1    
   138   71  136 1    
   139   71  137 1    
@<TRIPOS>SUBSTRUCTURE
     1 UNK         1 GROUP             0       ****    0 ROOT    
