@<TRIPOS>MOLECULE
3R137
137   139    1
SMALL
USER_CHARGES


@<TRIPOS>ATOM
      1 CA         31.1148    0.4742   -2.3301 C.3       0 UNK        -0.2020 
      2 C          30.0618   -0.5892   -2.5999 C.2       0 UNK         0.4855 
      3 O          29.4969   -0.6312   -3.6901 O.2       0 UNK        -0.5197 
      4 N          29.7736   -1.4344   -1.6016 N.am      1 UNK        -0.4892 
      5 CA         28.8319   -2.5611   -1.6946 C.3       1 UNK         0.0835 
      6 C6         29.1375   -3.6698   -0.6507 C.3       12 UNK        -0.0855 
      7 S7         30.8806   -4.2135   -0.6163 S.3       12 UNK        -0.2931 
      8 C8         30.8742   -5.6095   -1.7888 C.3       12 UNK         0.0378 
      9 C9         30.8456   -5.1349   -3.2349 C.ar      12 UNK        -0.0802 
     10 C10        31.9393   -4.4386   -3.7591 C.ar      12 UNK        -0.0944 
     11 C11        31.9255   -3.9824   -5.0792 C.ar      12 UNK        -0.0787 
     12 C12        30.8127   -4.2400   -5.8832 C.ar      12 UNK        -0.0862 
     13 C13        29.7113   -4.9350   -5.3730 C.ar      12 UNK        -0.0733 
     14 C14        29.7359   -5.3878   -4.0492 C.ar      12 UNK        -0.0832 
     15 C15        28.4906   -5.1753   -6.2542 C.3       12 UNK         0.0240 
     16 S16        27.0114   -4.2807   -5.6704 S.3       12 UNK        -0.2522 
     17 C17        27.5943   -2.5534   -5.6136 C.3       12 UNK        -0.0967 
     18 CA         26.9887   -1.6510   -6.7128 C.3       5 UNK         0.0660 
     19 N          25.5201   -1.5973   -6.6691 N.am      5 UNK        -0.4015 
     20 C          24.7344   -0.9048   -7.5102 C.2       4 UNK         0.4946 
     21 O          25.1681   -0.1973   -8.4194 O.2       4 UNK        -0.5353 
     22 CA         23.2116   -0.9969   -7.3156 C.3       4 UNK         0.0277 
     23 CB         22.6225   -2.0691   -8.2459 C.3       4 UNK        -0.1981 
     24 N          22.8345   -1.2914   -5.9331 N.am      4 UNK        -0.4209 
     25 C          22.8050   -0.3881   -4.9434 C.2       3 UNK         0.4942 
     26 O          22.9750    0.8209   -5.1144 O.2       3 UNK        -0.5208 
     27 CA         22.5616   -0.9215   -3.5136 C.3       3 UNK         0.0250 
     28 CB         22.4242   -2.4599   -3.4327 C.3       3 UNK        -0.1990 
     29 N          23.5722   -0.4833   -2.5389 N.am      3 UNK        -0.4232 
     30 C          24.9075   -0.4882   -2.6839 C.2       2 UNK         0.4993 
     31 O          25.4825   -0.7134   -3.7501 O.2       2 UNK        -0.5286 
     32 CA         25.7550   -0.1793   -1.4301 C.3       2 UNK         0.0209 
     33 CB         25.0450   -0.5229   -0.1004 C.3       2 UNK        -0.1931 
     34 N          27.0767   -0.8235   -1.4816 N.am      2 UNK        -0.4546 
     35 C          27.3458   -2.1351   -1.6041 C.2       1 UNK         0.5154 
     36 O          26.4774   -3.0096   -1.6223 O.2       1 UNK        -0.5181 
     37 C          27.6265   -0.2533   -6.6314 C.2       5 UNK         0.5014 
     38 O          28.5407    0.0394   -7.4029 O.2       5 UNK        -0.5248 
     39 N          27.0875    0.5985   -5.7498 N.am      6 UNK        -0.4434 
     40 CA         27.4929    1.9921   -5.5580 C.3       6 UNK         0.0363 
     41 CB         26.7001    2.5826   -4.3819 C.3       6 UNK        -0.1936 
     42 C          27.3500    2.8822   -6.8099 C.2       6 UNK         0.5081 
     43 O          28.0201    3.9122   -6.8822 O.2       6 UNK        -0.5248 
     44 N          26.5013    2.4812   -7.7661 N.am      7 UNK        -0.4718 
     45 CA         26.3427    3.1380   -9.0628 C.3       7 UNK         0.0273 
     46 CB         24.8453    3.2527   -9.3948 C.3       7 UNK        -0.1935 
     47 C          27.0849    2.3718  -10.1687 C.2       7 UNK         0.5018 
     48 O          27.7751    2.9975  -10.9738 O.2       7 UNK        -0.5186 
     49 N          26.9109    1.0429  -10.2079 N.am      8 UNK        -0.4240 
     50 CA         27.4177    0.1648  -11.2643 C.3       8 UNK         0.0235 
     51 CB         26.6938   -1.1900  -11.1894 C.3       8 UNK        -0.2000 
     52 C          28.9401   -0.0392  -11.2312 C.2       8 UNK         0.4941 
     53 O          29.5659   -0.0365  -12.2924 O.2       8 UNK        -0.5273 
     54 N          29.5001   -0.2330  -10.0314 N.am      9 UNK        -0.4262 
     55 CA         30.9259   -0.4770   -9.8051 C.3       9 UNK         0.0264 
     56 CB         31.0982   -1.7412   -8.9445 C.3       9 UNK        -0.1955 
     57 C          31.5957    0.7189   -9.1190 C.2       9 UNK         0.5031 
     58 O          32.7399    1.0345   -9.4508 O.2       9 UNK        -0.5390 
     59 N          30.8919    1.3409   -8.1610 N.am      10 UNK        -0.4204 
     60 CA         31.3139    2.4270   -7.2659 C.3       10 UNK         0.0237 
     61 CB         31.7284    3.6949   -8.0383 C.3       10 UNK        -0.1985 
     62 C          32.3808    1.9918   -6.2463 C.2       10 UNK         0.4970 
     63 O          32.1517    2.1592   -5.0491 O.2       10 UNK        -0.4914 
     64 N          33.4849    1.4222   -6.7504 N.am      11 UNK        -0.4285 
     65 CA         34.5980    0.7602   -6.0501 C.3       11 UNK         0.1007 
     66 C          35.0440    1.4136   -4.7064 C.2       11 UNK         0.5703 
     67 N          35.1851    0.6571   -3.6254 N.am      11 UNK        -0.7361 
     68 O          35.3320    2.6083   -4.6620 O.2       11 UNK        -0.4986 
     69 C69        34.4562   -0.7920   -6.0539 C.3       12 UNK        -0.0947 
     70 S70        32.9538   -1.4336   -5.2451 S.3       12 UNK        -0.2240 
     71 C71        33.1073   -3.2021   -5.6313 C.3       12 UNK         0.0194 
     72 H72        30.7220    1.4616   -2.5714 H         1 UNK         0.0906 
     73 H73        31.4358    0.4799   -1.2889 H         1 UNK         0.0906 
     74 H74        31.9903    0.3002   -2.9547 H         1 UNK         0.0906 
     75 H75        30.2741   -1.3632   -0.7267 H         1 UNK         0.3140 
     76 H76        28.9508   -3.0022   -2.6865 H         1 UNK         0.1085 
     77 H77        28.8891   -3.3173    0.3524 H         1 UNK         0.0836 
     78 H78        28.5046   -4.5427   -0.8227 H         1 UNK         0.0836 
     79 H79        30.0352   -6.2723   -1.5713 H         1 UNK         0.0731 
     80 H80        31.7772   -6.2013   -1.6318 H         1 UNK         0.0731 
     81 H81        32.7953   -4.2346   -3.1302 H         1 UNK         0.1312 
     82 H82        30.7986   -3.8831   -6.9034 H         1 UNK         0.1406 
     83 H83        28.8819   -5.9201   -3.6522 H         1 UNK         0.1631 
     84 H84        28.2707   -6.2434   -6.2778 H         1 UNK         0.0717 
     85 H85        28.6919   -4.8816   -7.2857 H         1 UNK         0.0717 
     86 H86        27.3586   -2.1641   -4.6235 H         1 UNK         0.0934 
     87 H87        28.6825   -2.5246   -5.6726 H         1 UNK         0.0934 
     88 H88        27.2610   -2.0713   -7.6829 H         1 UNK         0.0739 
     89 H89        25.0910   -2.1010   -5.9071 H         1 UNK         0.3093 
     90 H90        22.7861   -0.0313   -7.5982 H         1 UNK         0.0818 
     91 H91        21.5352   -2.1027   -8.1743 H         1 UNK         0.0819 
     92 H92        22.8705   -1.8585   -9.2874 H         1 UNK         0.0819 
     93 H93        23.0065   -3.0635   -8.0149 H         1 UNK         0.0819 
     94 H94        22.6605   -2.2590   -5.7024 H         1 UNK         0.3041 
     95 H95        21.6139   -0.4871   -3.1920 H         1 UNK         0.0784 
     96 H96        21.6115   -2.8270   -4.0609 H         1 UNK         0.0793 
     97 H97        23.3432   -2.9679   -3.7299 H         1 UNK         0.0793 
     98 H98        22.1963   -2.7759   -2.4145 H         1 UNK         0.0793 
     99 H99        23.2074   -0.2237   -1.6337 H         1 UNK         0.3024 
    100 H100       25.9356    0.8964   -1.4449 H         1 UNK         0.1171 
    101 H101       24.1673    0.1039    0.0604 H         1 UNK         0.0786 
    102 H102       24.7207   -1.5641   -0.0702 H         1 UNK         0.0786 
    103 H103       25.7059   -0.3593    0.7510 H         1 UNK         0.0786 
    104 H104       27.8694   -0.1991   -1.5200 H         1 UNK         0.2977 
    105 H105       26.3761    0.2325   -5.1187 H         1 UNK         0.3127 
    106 H106       28.5502    1.9836   -5.2857 H         1 UNK         0.0770 
    107 H107       25.6247    2.5417   -4.5612 H         1 UNK         0.0814 
    108 H108       26.9666    3.6268   -4.2124 H         1 UNK         0.0814 
    109 H109       26.9094    2.0427   -3.4589 H         1 UNK         0.0814 
    110 H110       26.0125    1.6023   -7.6423 H         1 UNK         0.2983 
    111 H111       26.7544    4.1493   -9.0289 H         1 UNK         0.0947 
    112 H112       24.6960    3.7360  -10.3613 H         1 UNK         0.0806 
    113 H113       24.3214    3.8511   -8.6494 H         1 UNK         0.0806 
    114 H114       24.3603    2.2766   -9.4392 H         1 UNK         0.0806 
    115 H115       26.2997    0.6087   -9.5167 H         1 UNK         0.3000 
    116 H116       27.1704    0.6242  -12.2239 H         1 UNK         0.0850 
    117 H117       27.0286   -1.8577  -11.9843 H         1 UNK         0.0810 
    118 H118       25.6158   -1.0695  -11.2993 H         1 UNK         0.0810 
    119 H119       26.8765   -1.6940  -10.2395 H         1 UNK         0.0810 
    120 H120       28.9165   -0.1784   -9.2000 H         1 UNK         0.3040 
    121 H121       31.4412   -0.6438  -10.7534 H         1 UNK         0.0766 
    122 H122       32.1544   -1.9566   -8.7768 H         1 UNK         0.0812 
    123 H123       30.6615   -2.6136   -9.4304 H         1 UNK         0.0812 
    124 H124       30.6310   -1.6335   -7.9646 H         1 UNK         0.0812 
    125 H125       29.9915    0.9279   -7.9170 H         1 UNK         0.3205 
    126 H126       30.4262    2.6830   -6.6882 H         1 UNK         0.0754 
    127 H127       31.9400    4.5137   -7.3497 H         1 UNK         0.0769 
    128 H128       30.9298    4.0280   -8.7015 H         1 UNK         0.0769 
    129 H129       32.6234    3.5406   -8.6411 H         1 UNK         0.0769 
    130 H130       33.5115    1.3468   -7.7637 H         1 UNK         0.2981 
    131 H131       35.4516    0.9599   -6.6988 H         1 UNK         0.0541 
    132 H132       34.9408   -0.3203   -3.6535 H         1 UNK         0.3459 
    133 H133       35.4984    1.0780   -2.7653 H         1 UNK         0.3459 
    134 H134       35.3321   -1.2626   -5.6043 H         1 UNK         0.0612 
    135 H135       34.4406   -1.1394   -7.0883 H         1 UNK         0.0612 
    136 H136       33.1752   -3.3330   -6.7124 H         1 UNK         0.0624 
    137 H137       34.0384   -3.5856   -5.2114 H         1 UNK         0.0624 
@<TRIPOS>BOND
     1    1    2 1    
     2    1   72 1    
     3    1   73 1    
     4    1   74 1    
     5    2    3 2    
     6    2    4 am   BACKBONE|DICT|INTERRES
     7    4    5 1    
     8    4   75 1    
     9    5    6 1    
    10    5   35 1    
    11    5   76 1    
    12    6    7 1    
    13    6   77 1    
    14    6   78 1    
    15    7    8 1    
    16    8    9 1    
    17    8   79 1    
    18    8   80 1    
    19    9   10 ar   
    20    9   14 ar   
    21   10   11 ar   
    22   10   81 1    
    23   11   12 ar   
    24   11   71 1    
    25   12   13 ar   
    26   12   82 1    
    27   13   14 ar   
    28   13   15 1    
    29   14   83 1    
    30   15   16 1    
    31   15   84 1    
    32   15   85 1    
    33   16   17 1    
    34   17   18 1    
    35   17   86 1    
    36   17   87 1    
    37   18   19 1    
    38   18   37 1    
    39   18   88 1    
    40   19   20 am   BACKBONE|DICT|INTERRES
    41   19   89 1    
    42   20   21 2    
    43   20   22 1    
    44   22   23 1    
    45   22   24 1    
    46   22   90 1    
    47   23   91 1    
    48   23   92 1    
    49   23   93 1    
    50   24   25 am   BACKBONE|DICT|INTERRES
    51   24   94 1    
    52   25   26 2    
    53   25   27 1    
    54   27   28 1    
    55   27   29 1    
    56   27   95 1    
    57   28   96 1    
    58   28   97 1    
    59   28   98 1    
    60   29   30 am   BACKBONE|DICT|INTERRES
    61   29   99 1    
    62   30   31 2    
    63   30   32 1    
    64   32   33 1    
    65   32   34 1    
    66   32  100 1    
    67   33  101 1    
    68   33  102 1    
    69   33  103 1    
    70   34   35 am   BACKBONE|DICT|INTERRES
    71   34  104 1    
    72   35   36 2    
    73   37   38 2    
    74   37   39 am   BACKBONE|DICT|INTERRES
    75   39   40 1    
    76   39  105 1    
    77   40   41 1    
    78   40   42 1    
    79   40  106 1    
    80   41  107 1    
    81   41  108 1    
    82   41  109 1    
    83   42   43 2    
    84   42   44 am   BACKBONE|DICT|INTERRES
    85   44   45 1    
    86   44  110 1    
    87   45   46 1    
    88   45   47 1    
    89   45  111 1    
    90   46  112 1    
    91   46  113 1    
    92   46  114 1    
    93   47   48 2    
    94   47   49 am   BACKBONE|DICT|INTERRES
    95   49   50 1    
    96   49  115 1    
    97   50   51 1    
    98   50   52 1    
    99   50  116 1    
   100   51  117 1    
   101   51  118 1    
   102   51  119 1    
   103   52   53 2    
   104   52   54 am   BACKBONE|DICT|INTERRES
   105   54   55 1    
   106   54  120 1    
   107   55   56 1    
   108   55   57 1    
   109   55  121 1    
   110   56  122 1    
   111   56  123 1    
   112   56  124 1    
   113   57   58 2    
   114   57   59 am   BACKBONE|DICT|INTERRES
   115   59   60 1    
   116   59  125 1    
   117   60   61 1    
   118   60   62 1    
   119   60  126 1    
   120   61  127 1    
   121   61  128 1    
   122   61  129 1    
   123   62   63 2    
   124   62   64 am   BACKBONE|DICT|INTERRES
   125   64   65 1    
   126   64  130 1    
   127   65   66 1    
   128   65   69 1    
   129   65  131 1    
   130   66   67 am   BACKBONE|DICT|INTERRES
   131   66   68 2    
   132   67  132 1    
   133   67  133 1    
   134   69   70 1    
   135   69  134 1    
   136   69  135 1    
   137   70   71 1    
   138   71  136 1    
   139   71  137 1    
@<TRIPOS>SUBSTRUCTURE
     1 UNK         1 GROUP             0       ****    0 ROOT    
