@<TRIPOS>MOLECULE
3R137
137   139    1
SMALL
USER_CHARGES


@<TRIPOS>ATOM
      1 CA         21.8590    0.3112   -6.5707 C.3       0 UNK        -0.2020 
      2 C          22.0895   -1.1583   -6.2526 C.2       0 UNK         0.4855 
      3 O          21.1250   -1.8969   -6.0491 O.2       0 UNK        -0.5197 
      4 N          23.3573   -1.5879   -6.2106 N.am      1 UNK        -0.4892 
      5 CA         23.7628   -2.9338   -5.7970 C.3       1 UNK         0.0835 
      6 C6         25.0314   -3.4028   -6.5595 C.3       12 UNK        -0.0855 
      7 S7         26.6011   -2.5824   -6.0978 S.3       12 UNK        -0.2931 
      8 C8         27.5424   -4.0277   -5.5162 C.3       12 UNK         0.0378 
      9 C9         28.9645   -3.6748   -5.1093 C.ar      12 UNK        -0.0802 
     10 C10        30.0086   -3.7530   -6.0379 C.ar      12 UNK        -0.0944 
     11 C11        31.3272   -3.4995   -5.6451 C.ar      12 UNK        -0.0787 
     12 C12        31.5942   -3.1630   -4.3156 C.ar      12 UNK        -0.0862 
     13 C13        30.5585   -3.0550   -3.3862 C.ar      12 UNK        -0.0733 
     14 C14        29.2458   -3.3192   -3.7872 C.ar      12 UNK        -0.0832 
     15 C15        30.8679   -2.6620   -1.9492 C.3       12 UNK         0.0240 
     16 S16        30.0569   -1.1080   -1.4605 S.3       12 UNK        -0.2522 
     17 C17        30.6413    0.0784   -2.7249 C.3       12 UNK        -0.0967 
     18 CA         29.5881    0.3721   -3.8321 C.3       5 UNK         0.0660 
     19 N          28.2626    0.6663   -3.2512 N.am      5 UNK        -0.4015 
     20 C          27.0716    0.7272   -3.8641 C.2       4 UNK         0.4946 
     21 O          26.9234    0.6555   -5.0867 O.2       4 UNK        -0.5353 
     22 CA         25.8450    0.9162   -2.9555 C.3       4 UNK         0.0277 
     23 CB         24.5673    1.2336   -3.7536 C.3       4 UNK        -0.1981 
     24 N          25.6212   -0.2746   -2.1303 N.am      4 UNK        -0.4209 
     25 C          26.2561   -0.5156   -0.9732 C.2       3 UNK         0.4942 
     26 O          27.0780    0.2681   -0.4948 O.2       3 UNK        -0.5208 
     27 CA         25.9396   -1.8114   -0.2017 C.3       3 UNK         0.0250 
     28 CB         25.3480   -1.4828    1.1805 C.3       3 UNK        -0.1990 
     29 N          25.0084   -2.6947   -0.9059 N.am      3 UNK        -0.4232 
     30 C          25.3527   -3.7690   -1.6278 C.2       2 UNK         0.4993 
     31 O          26.5109   -4.1553   -1.7787 O.2       2 UNK        -0.5286 
     32 CA         24.2117   -4.5563   -2.3037 C.3       2 UNK         0.0209 
     33 CB         22.8497   -4.4167   -1.5848 C.3       2 UNK        -0.1931 
     34 N          24.0772   -4.2320   -3.7308 N.am      2 UNK        -0.4546 
     35 C          23.8853   -3.0133   -4.2579 C.2       1 UNK         0.5154 
     36 O          23.7996   -1.9871   -3.5763 O.2       1 UNK        -0.5181 
     37 C          30.1095    1.4185   -4.8561 C.2       5 UNK         0.5014 
     38 O          31.3118    1.6858   -4.9171 O.2       5 UNK        -0.5248 
     39 N          29.1963    1.9946   -5.6370 N.am      6 UNK        -0.4434 
     40 CA         29.4161    2.9426   -6.7230 C.3       6 UNK         0.0363 
     41 CB         29.3049    4.3769   -6.1781 C.3       6 UNK        -0.1936 
     42 C          28.4307    2.7136   -7.8867 C.2       6 UNK         0.5081 
     43 O          28.6302    3.3002   -8.9510 O.2       6 UNK        -0.5248 
     44 N          27.3726    1.9101   -7.6797 N.am      7 UNK        -0.4718 
     45 CA         26.2986    1.6960   -8.6506 C.3       7 UNK         0.0273 
     46 CB         25.0412    1.2165   -7.9113 C.3       7 UNK        -0.1935 
     47 C          26.6821    0.7108   -9.7636 C.2       7 UNK         0.5018 
     48 O          26.4539    1.0112  -10.9361 O.2       7 UNK        -0.5186 
     49 N          27.2425   -0.4472   -9.3832 N.am      8 UNK        -0.4240 
     50 CA         27.6878   -1.4873  -10.3195 C.3       8 UNK         0.0235 
     51 CB         27.9328   -2.7992   -9.5562 C.3       8 UNK        -0.2000 
     52 C          28.9472   -1.0719  -11.0975 C.2       8 UNK         0.4941 
     53 O          29.0507   -1.3435  -12.2942 O.2       8 UNK        -0.5273 
     54 N          29.8618   -0.4051  -10.3920 N.am      9 UNK        -0.4262 
     55 CA         31.1138    0.1822  -10.8463 C.3       9 UNK         0.0264 
     56 CB         32.1323   -0.9149  -11.2138 C.3       9 UNK        -0.1955 
     57 C          31.6184    1.0384   -9.6798 C.2       9 UNK         0.5031 
     58 O          31.1370    0.8671   -8.5553 O.2       9 UNK        -0.5390 
     59 N          32.5867    1.9248   -9.9410 N.am      10 UNK        -0.4204 
     60 CA         33.2164    2.8020   -8.9454 C.3       10 UNK         0.0237 
     61 CB         33.8927    3.9788   -9.6740 C.3       10 UNK        -0.1985 
     62 C          34.1870    2.0360   -8.0206 C.2       10 UNK         0.4970 
     63 O          35.3853    2.3247   -8.0054 O.2       10 UNK        -0.4914 
     64 N          33.6529    1.0465   -7.2992 N.am      11 UNK        -0.4285 
     65 CA         34.3810    0.1518   -6.3933 C.3       11 UNK         0.1007 
     66 C          34.9313    0.8723   -5.1335 C.2       11 UNK         0.5703 
     67 N          34.1548    1.7425   -4.4995 N.am      11 UNK        -0.7361 
     68 O          36.0697    0.6415   -4.7329 O.2       11 UNK        -0.4986 
     69 C69        33.5204   -1.0705   -5.9882 C.3       12 UNK        -0.0947 
     70 S70        32.8773   -2.0152   -7.4120 S.3       12 UNK        -0.2240 
     71 C71        32.4717   -3.6141   -6.6429 C.3       12 UNK         0.0194 
     72 H72        22.6874    0.9301   -6.2304 H         1 UNK         0.0906 
     73 H73        21.7370    0.4510   -7.6443 H         1 UNK         0.0906 
     74 H74        20.9561    0.6688   -6.0761 H         1 UNK         0.0906 
     75 H75        24.1182   -0.9355   -6.3285 H         1 UNK         0.3140 
     76 H76        22.9619   -3.6249   -6.0705 H         1 UNK         0.1085 
     77 H77        24.8838   -3.2516   -7.6301 H         1 UNK         0.0836 
     78 H78        25.1410   -4.4826   -6.4472 H         1 UNK         0.0836 
     79 H79        27.5651   -4.7825   -6.3040 H         1 UNK         0.0731 
     80 H80        27.0188   -4.4801   -4.6722 H         1 UNK         0.0731 
     81 H81        29.7977   -4.0295   -7.0616 H         1 UNK         0.1312 
     82 H82        32.6127   -2.9779   -4.0049 H         1 UNK         0.1406 
     83 H83        28.4439   -3.2440   -3.0668 H         1 UNK         0.1631 
     84 H84        31.9429   -2.5603   -1.7926 H         1 UNK         0.0717 
     85 H85        30.5338   -3.4582   -1.2827 H         1 UNK         0.0717 
     86 H86        30.9092    1.0021   -2.2085 H         1 UNK         0.0934 
     87 H87        31.5682   -0.2963   -3.1631 H         1 UNK         0.0934 
     88 H88        29.4633   -0.5444   -4.4114 H         1 UNK         0.0739 
     89 H89        28.2470    0.7061   -2.2378 H         1 UNK         0.3093 
     90 H90        26.0429    1.7743   -2.3093 H         1 UNK         0.0818 
     91 H91        23.7105    1.3754   -3.0952 H         1 UNK         0.0819 
     92 H92        24.3240    0.4347   -4.4519 H         1 UNK         0.0819 
     93 H93        24.6876    2.1481   -4.3357 H         1 UNK         0.0819 
     94 H94        24.9835   -0.9706   -2.5122 H         1 UNK         0.3041 
     95 H95        26.8908   -2.3255   -0.0472 H         1 UNK         0.0784 
     96 H96        26.0305   -0.8619    1.7625 H         1 UNK         0.0793 
     97 H97        24.4045   -0.9417    1.0982 H         1 UNK         0.0793 
     98 H98        25.1665   -2.3888    1.7591 H         1 UNK         0.0793 
     99 H99        24.0325   -2.4341   -0.8830 H         1 UNK         0.3024 
    100 H100       24.5016   -5.6072   -2.2473 H         1 UNK         0.1171 
    101 H101       22.1185   -5.1092   -2.0022 H         1 UNK         0.0786 
    102 H102       22.9391   -4.6511   -0.5230 H         1 UNK         0.0786 
    103 H103       22.4310   -3.4134   -1.6691 H         1 UNK         0.0786 
    104 H104       24.1614   -5.0179   -4.3603 H         1 UNK         0.2977 
    105 H105       28.2429    1.6628   -5.5047 H         1 UNK         0.3127 
    106 H106       30.4225    2.8068   -7.1172 H         1 UNK         0.0770 
    107 H107       28.3170    4.5716   -5.7592 H         1 UNK         0.0814 
    108 H108       29.4774    5.1096   -6.9675 H         1 UNK         0.0814 
    109 H109       30.0437    4.5617   -5.3982 H         1 UNK         0.0814 
    110 H110       27.2540    1.4366   -6.7899 H         1 UNK         0.2983 
    111 H111       26.0635    2.6525   -9.1236 H         1 UNK         0.0947 
    112 H112       24.2188    1.0430   -8.6068 H         1 UNK         0.0806 
    113 H113       24.7063    1.9596   -7.1875 H         1 UNK         0.0806 
    114 H114       25.2245    0.2855   -7.3752 H         1 UNK         0.0806 
    115 H115       27.3814   -0.6197   -8.3973 H         1 UNK         0.3000 
    116 H116       26.8910   -1.6598  -11.0464 H         1 UNK         0.0850 
    117 H117       28.2944   -3.5805  -10.2261 H         1 UNK         0.0810 
    118 H118       27.0151   -3.1677   -9.0986 H         1 UNK         0.0810 
    119 H119       28.6754   -2.6748   -8.7673 H         1 UNK         0.0810 
    120 H120       29.6879   -0.2110   -9.4114 H         1 UNK         0.3040 
    121 H121       30.9169    0.8253  -11.7061 H         1 UNK         0.0766 
    122 H122       33.0901   -0.4838  -11.5068 H         1 UNK         0.0812 
    123 H123       31.7850   -1.5198  -12.0512 H         1 UNK         0.0812 
    124 H124       32.3191   -1.5854  -10.3745 H         1 UNK         0.0812 
    125 H125       32.9518    1.9801  -10.8812 H         1 UNK         0.3205 
    126 H126       32.4347    3.2200   -8.3084 H         1 UNK         0.0754 
    127 H127       34.6837    3.6399  -10.3443 H         1 UNK         0.0769 
    128 H128       34.3425    4.6725   -8.9621 H         1 UNK         0.0769 
    129 H129       33.1726    4.5466  -10.2637 H         1 UNK         0.0769 
    130 H130       32.6594    0.8616   -7.4111 H         1 UNK         0.2981 
    131 H131       35.2439   -0.2253   -6.9457 H         1 UNK         0.0541 
    132 H132       33.1844    1.8614   -4.7818 H         1 UNK         0.3459 
    133 H133       34.5051    2.2195   -3.6851 H         1 UNK         0.3459 
    134 H134       32.6682   -0.7491   -5.3875 H         1 UNK         0.0612 
    135 H135       34.1101   -1.7455   -5.3658 H         1 UNK         0.0612 
    136 H136       32.2087   -4.3218   -7.4303 H         1 UNK         0.0624 
    137 H137       33.3600   -4.0188   -6.1555 H         1 UNK         0.0624 
@<TRIPOS>BOND
     1    1    2 1    
     2    1   72 1    
     3    1   73 1    
     4    1   74 1    
     5    2    3 2    
     6    2    4 am   BACKBONE|DICT|INTERRES
     7    4    5 1    
     8    4   75 1    
     9    5    6 1    
    10    5   35 1    
    11    5   76 1    
    12    6    7 1    
    13    6   77 1    
    14    6   78 1    
    15    7    8 1    
    16    8    9 1    
    17    8   79 1    
    18    8   80 1    
    19    9   10 ar   
    20    9   14 ar   
    21   10   11 ar   
    22   10   81 1    
    23   11   12 ar   
    24   11   71 1    
    25   12   13 ar   
    26   12   82 1    
    27   13   14 ar   
    28   13   15 1    
    29   14   83 1    
    30   15   16 1    
    31   15   84 1    
    32   15   85 1    
    33   16   17 1    
    34   17   18 1    
    35   17   86 1    
    36   17   87 1    
    37   18   19 1    
    38   18   37 1    
    39   18   88 1    
    40   19   20 am   BACKBONE|DICT|INTERRES
    41   19   89 1    
    42   20   21 2    
    43   20   22 1    
    44   22   23 1    
    45   22   24 1    
    46   22   90 1    
    47   23   91 1    
    48   23   92 1    
    49   23   93 1    
    50   24   25 am   BACKBONE|DICT|INTERRES
    51   24   94 1    
    52   25   26 2    
    53   25   27 1    
    54   27   28 1    
    55   27   29 1    
    56   27   95 1    
    57   28   96 1    
    58   28   97 1    
    59   28   98 1    
    60   29   30 am   BACKBONE|DICT|INTERRES
    61   29   99 1    
    62   30   31 2    
    63   30   32 1    
    64   32   33 1    
    65   32   34 1    
    66   32  100 1    
    67   33  101 1    
    68   33  102 1    
    69   33  103 1    
    70   34   35 am   BACKBONE|DICT|INTERRES
    71   34  104 1    
    72   35   36 2    
    73   37   38 2    
    74   37   39 am   BACKBONE|DICT|INTERRES
    75   39   40 1    
    76   39  105 1    
    77   40   41 1    
    78   40   42 1    
    79   40  106 1    
    80   41  107 1    
    81   41  108 1    
    82   41  109 1    
    83   42   43 2    
    84   42   44 am   BACKBONE|DICT|INTERRES
    85   44   45 1    
    86   44  110 1    
    87   45   46 1    
    88   45   47 1    
    89   45  111 1    
    90   46  112 1    
    91   46  113 1    
    92   46  114 1    
    93   47   48 2    
    94   47   49 am   BACKBONE|DICT|INTERRES
    95   49   50 1    
    96   49  115 1    
    97   50   51 1    
    98   50   52 1    
    99   50  116 1    
   100   51  117 1    
   101   51  118 1    
   102   51  119 1    
   103   52   53 2    
   104   52   54 am   BACKBONE|DICT|INTERRES
   105   54   55 1    
   106   54  120 1    
   107   55   56 1    
   108   55   57 1    
   109   55  121 1    
   110   56  122 1    
   111   56  123 1    
   112   56  124 1    
   113   57   58 2    
   114   57   59 am   BACKBONE|DICT|INTERRES
   115   59   60 1    
   116   59  125 1    
   117   60   61 1    
   118   60   62 1    
   119   60  126 1    
   120   61  127 1    
   121   61  128 1    
   122   61  129 1    
   123   62   63 2    
   124   62   64 am   BACKBONE|DICT|INTERRES
   125   64   65 1    
   126   64  130 1    
   127   65   66 1    
   128   65   69 1    
   129   65  131 1    
   130   66   67 am   BACKBONE|DICT|INTERRES
   131   66   68 2    
   132   67  132 1    
   133   67  133 1    
   134   69   70 1    
   135   69  134 1    
   136   69  135 1    
   137   70   71 1    
   138   71  136 1    
   139   71  137 1    
@<TRIPOS>SUBSTRUCTURE
     1 UNK         1 GROUP             0       ****    0 ROOT    
