@<TRIPOS>MOLECULE
3R137
137   139    1
SMALL
USER_CHARGES


@<TRIPOS>ATOM
      1 CA         25.4230   -6.9907   -3.9912 C.3       0 UNK        -0.2020 
      2 C          25.4172   -6.0695   -2.7803 C.2       0 UNK         0.4855 
      3 O          24.4352   -6.0378   -2.0375 O.2       0 UNK        -0.5197 
      4 N          26.5118   -5.3279   -2.5745 N.am      1 UNK        -0.4892 
      5 CA         26.6713   -4.3294   -1.5108 C.3       1 UNK         0.0835 
      6 C6         28.1567   -3.9280   -1.3093 C.3       12 UNK        -0.0855 
      7 S7         29.2663   -5.3631   -1.0765 S.3       12 UNK        -0.2931 
      8 C8         30.9249   -4.6008   -1.1993 C.3       12 UNK         0.0378 
      9 C9         31.1084   -3.7365   -2.4436 C.ar      12 UNK        -0.0802 
     10 C10        31.6601   -2.4571   -2.3307 C.ar      12 UNK        -0.0944 
     11 C11        31.7845   -1.6211   -3.4455 C.ar      12 UNK        -0.0787 
     12 C12        31.3242   -2.0820   -4.6880 C.ar      12 UNK        -0.0862 
     13 C13        30.7766   -3.3642   -4.8184 C.ar      12 UNK        -0.0733 
     14 C14        30.7048   -4.1966   -3.6994 C.ar      12 UNK        -0.0832 
     15 C15        30.2666   -3.8452   -6.1721 C.3       12 UNK         0.0240 
     16 S16        28.6065   -4.6127   -6.1243 S.3       12 UNK        -0.2522 
     17 C17        27.5683   -3.3557   -5.3027 C.3       12 UNK        -0.0967 
     18 CA         26.9370   -2.3282   -6.2708 C.3       5 UNK         0.0660 
     19 N          25.6514   -1.8239   -5.7778 N.am      5 UNK        -0.4015 
     20 C          24.7950   -1.1214   -6.5348 C.2       4 UNK         0.4946 
     21 O          24.9769   -0.8699   -7.7270 O.2       4 UNK        -0.5353 
     22 CA         23.5391   -0.5774   -5.8387 C.3       4 UNK         0.0277 
     23 CB         22.5579   -1.7150   -5.5089 C.3       4 UNK        -0.1981 
     24 N          23.8330    0.1851   -4.6236 N.am      4 UNK        -0.4209 
     25 C          24.5990    1.2853   -4.5504 C.2       3 UNK         0.4942 
     26 O          25.1890    1.7780   -5.5097 O.2       3 UNK        -0.5208 
     27 CA         24.7365    1.9532   -3.1701 C.3       3 UNK         0.0250 
     28 CB         23.7397    3.1152   -3.0357 C.3       3 UNK        -0.1990 
     29 N          24.5394    1.0116   -2.0661 N.am      3 UNK        -0.4232 
     30 C          25.4031    0.0388   -1.7466 C.2       2 UNK         0.4993 
     31 O          26.5184   -0.0699   -2.2640 O.2       2 UNK        -0.5286 
     32 CA         24.9302   -0.9763   -0.6819 C.3       2 UNK         0.0209 
     33 CB         23.4101   -1.2562   -0.7456 C.3       2 UNK        -0.1931 
     34 N          25.6661   -2.2472   -0.7217 N.am      2 UNK        -0.4546 
     35 C          25.8054   -3.0739   -1.7702 C.2       1 UNK         0.5154 
     36 O          25.3206   -2.8616   -2.8894 O.2       1 UNK        -0.5181 
     37 C          27.9077   -1.1722   -6.5671 C.2       5 UNK         0.5014 
     38 O          28.5699   -1.1882   -7.6050 O.2       5 UNK        -0.5248 
     39 N          27.9572   -0.1809   -5.6649 N.am      6 UNK        -0.4434 
     40 CA         28.8509    0.9713   -5.7607 C.3       6 UNK         0.0363 
     41 CB         28.7547    1.8221   -4.4860 C.3       6 UNK        -0.1936 
     42 C          28.6236    1.8215   -7.0172 C.2       6 UNK         0.5081 
     43 O          29.5935    2.1492   -7.7000 O.2       6 UNK        -0.5248 
     44 N          27.3553    2.1199   -7.3276 N.am      7 UNK        -0.4718 
     45 CA         26.9490    2.8469   -8.5321 C.3       7 UNK         0.0273 
     46 CB         25.4618    3.2194   -8.4261 C.3       7 UNK        -0.1935 
     47 C          27.2156    2.0675   -9.8307 C.2       7 UNK         0.5018 
     48 O          27.5256    2.6888  -10.8477 O.2       7 UNK        -0.5186 
     49 N          27.0933    0.7336   -9.7776 N.am      8 UNK        -0.4240 
     50 CA         27.3636   -0.1606  -10.9029 C.3       8 UNK         0.0235 
     51 CB         26.7180   -1.5324  -10.6451 C.3       8 UNK        -0.2000 
     52 C          28.8675   -0.3035  -11.1848 C.2       8 UNK         0.4941 
     53 O          29.2789   -0.1788  -12.3391 O.2       8 UNK        -0.5273 
     54 N          29.6563   -0.5750  -10.1361 N.am      9 UNK        -0.4262 
     55 CA         31.0968   -0.8184  -10.2371 C.3       9 UNK         0.0264 
     56 CB         31.5598   -1.6401   -9.0246 C.3       9 UNK        -0.1955 
     57 C          31.9405    0.4592  -10.3561 C.2       9 UNK         0.5031 
     58 O          33.0313    0.3883  -10.9244 O.2       9 UNK        -0.5390 
     59 N          31.4547    1.5779   -9.7936 N.am      10 UNK        -0.4204 
     60 CA         32.1696    2.8474   -9.6024 C.3       10 UNK         0.0237 
     61 CB         32.4888    3.5258  -10.9524 C.3       10 UNK        -0.1985 
     62 C          33.4037    2.6619   -8.6964 C.2       10 UNK         0.4970 
     63 O          34.5050    3.0888   -9.0481 O.2       10 UNK        -0.4914 
     64 N          33.1906    1.9899   -7.5563 N.am      11 UNK        -0.4285 
     65 CA         34.2291    1.6114   -6.5830 C.3       11 UNK         0.1007 
     66 C          34.8729    2.7868   -5.7871 C.2       11 UNK         0.5703 
     67 N          34.3215    3.9946   -5.8178 N.am      11 UNK        -0.7361 
     68 O          35.9006    2.5986   -5.1401 O.2       11 UNK        -0.4986 
     69 C69        33.7417    0.4649   -5.6540 C.3       12 UNK        -0.0947 
     70 S70        32.3115    0.9377   -4.6222 S.3       12 UNK        -0.2240 
     71 C71        32.4144   -0.2398   -3.2305 C.3       12 UNK         0.0194 
     72 H72        24.5877   -6.7501   -4.6482 H         1 UNK         0.0906 
     73 H73        26.3433   -6.9001   -4.5686 H         1 UNK         0.0906 
     74 H74        25.3209   -8.0283   -3.6747 H         1 UNK         0.0906 
     75 H75        27.2970   -5.4144   -3.2026 H         1 UNK         0.3140 
     76 H76        26.3135   -4.7837   -0.5840 H         1 UNK         0.1085 
     77 H77        28.4970   -3.3417   -2.1633 H         1 UNK         0.0836 
     78 H78        28.2686   -3.2796   -0.4385 H         1 UNK         0.0836 
     79 H79        31.0977   -4.0134   -0.2961 H         1 UNK         0.0731 
     80 H80        31.6776   -5.3900   -1.2032 H         1 UNK         0.0731 
     81 H81        31.9887   -2.1024   -1.3630 H         1 UNK         0.1312 
     82 H82        31.3871   -1.4511   -5.5617 H         1 UNK         0.1406 
     83 H83        30.2878   -5.1897   -3.7970 H         1 UNK         0.1631 
     84 H84        30.2408   -3.0213   -6.8810 H         1 UNK         0.0717 
     85 H85        30.9747   -4.5703   -6.5747 H         1 UNK         0.0717 
     86 H86        26.7662   -3.9227   -4.8335 H         1 UNK         0.0934 
     87 H87        28.1038   -2.8752   -4.4824 H         1 UNK         0.0934 
     88 H88        26.7320   -2.8328   -7.2179 H         1 UNK         0.0739 
     89 H89        25.4291   -2.0046   -4.8031 H         1 UNK         0.3093 
     90 H90        23.0484    0.1032   -6.5378 H         1 UNK         0.0818 
     91 H91        21.6141   -1.3260   -5.1262 H         1 UNK         0.0819 
     92 H92        22.3261   -2.3008   -6.3996 H         1 UNK         0.0819 
     93 H93        22.9642   -2.4009   -4.7639 H         1 UNK         0.0819 
     94 H94        23.4035   -0.1455   -3.7731 H         1 UNK         0.3041 
     95 H95        25.7462    2.3616   -3.0965 H         1 UNK         0.0784 
     96 H96        23.8838    3.8450   -3.8340 H         1 UNK         0.0793 
     97 H97        22.7057    2.7722   -3.0913 H         1 UNK         0.0793 
     98 H98        23.8695    3.6426   -2.0904 H         1 UNK         0.0793 
     99 H99        23.6581    1.0617   -1.5754 H         1 UNK         0.3024 
    100 H100       25.1509   -0.5225    0.2858 H         1 UNK         0.1171 
    101 H101       23.1217   -2.0174   -0.0203 H         1 UNK         0.0786 
    102 H102       22.8224   -0.3680   -0.5120 H         1 UNK         0.0786 
    103 H103       23.1032   -1.6105   -1.7306 H         1 UNK         0.0786 
    104 H104       26.1386   -2.4911    0.1375 H         1 UNK         0.2977 
    105 H105       27.3653   -0.2306   -4.8470 H         1 UNK         0.3127 
    106 H106       29.8593    0.5679   -5.8335 H         1 UNK         0.0770 
    107 H107       27.7610    2.2510   -4.3611 H         1 UNK         0.0814 
    108 H108       29.4659    2.6485   -4.5173 H         1 UNK         0.0814 
    109 H109       28.9827    1.2327   -3.5973 H         1 UNK         0.0814 
    110 H110       26.6102    1.8407   -6.6907 H         1 UNK         0.2983 
    111 H111       27.5320    3.7694   -8.5783 H         1 UNK         0.0947 
    112 H112       25.1331    3.7770   -9.3042 H         1 UNK         0.0806 
    113 H113       25.2717    3.8451   -7.5538 H         1 UNK         0.0806 
    114 H114       24.8310    2.3329   -8.3440 H         1 UNK         0.0806 
    115 H115       26.8258    0.3041   -8.9010 H         1 UNK         0.3000 
    116 H116       26.8978    0.2645  -11.7948 H         1 UNK         0.0850 
    117 H117       26.8907   -2.2087  -11.4833 H         1 UNK         0.0810 
    118 H118       25.6390   -1.4430  -10.5169 H         1 UNK         0.0810 
    119 H119       27.1189   -2.0112   -9.7513 H         1 UNK         0.0810 
    120 H120       29.2310   -0.7005   -9.2170 H         1 UNK         0.3040 
    121 H121       31.2839   -1.4144  -11.1332 H         1 UNK         0.0766 
    122 H122       31.0663   -2.6112   -9.0040 H         1 UNK         0.0812 
    123 H123       31.3477   -1.1270   -8.0859 H         1 UNK         0.0812 
    124 H124       32.6343   -1.8258   -9.0606 H         1 UNK         0.0812 
    125 H125       30.5663    1.5224   -9.3022 H         1 UNK         0.3205 
    126 H126       31.4892    3.5069   -9.0618 H         1 UNK         0.0754 
    127 H127       32.9089    4.5203  -10.7972 H         1 UNK         0.0769 
    128 H128       31.5895    3.6442  -11.5569 H         1 UNK         0.0769 
    129 H129       33.2128    2.9571  -11.5365 H         1 UNK         0.0769 
    130 H130       32.2481    1.7097   -7.3264 H         1 UNK         0.2981 
    131 H131       35.0495    1.1961   -7.1713 H         1 UNK         0.0541 
    132 H132       34.7508    4.7471   -5.3034 H         1 UNK         0.3459 
    133 H133       33.4778    4.1562   -6.3427 H         1 UNK         0.3459 
    134 H134       34.5560    0.1286   -5.0099 H         1 UNK         0.0612 
    135 H135       33.4617   -0.4019   -6.2540 H         1 UNK         0.0612 
    136 H136       33.4587   -0.3634   -2.9409 H         1 UNK         0.0624 
    137 H137       31.9179    0.2309   -2.3807 H         1 UNK         0.0624 
@<TRIPOS>BOND
     1    1    2 1    
     2    1   72 1    
     3    1   73 1    
     4    1   74 1    
     5    2    3 2    
     6    2    4 am   BACKBONE|DICT|INTERRES
     7    4    5 1    
     8    4   75 1    
     9    5    6 1    
    10    5   35 1    
    11    5   76 1    
    12    6    7 1    
    13    6   77 1    
    14    6   78 1    
    15    7    8 1    
    16    8    9 1    
    17    8   79 1    
    18    8   80 1    
    19    9   10 ar   
    20    9   14 ar   
    21   10   11 ar   
    22   10   81 1    
    23   11   12 ar   
    24   11   71 1    
    25   12   13 ar   
    26   12   82 1    
    27   13   14 ar   
    28   13   15 1    
    29   14   83 1    
    30   15   16 1    
    31   15   84 1    
    32   15   85 1    
    33   16   17 1    
    34   17   18 1    
    35   17   86 1    
    36   17   87 1    
    37   18   19 1    
    38   18   37 1    
    39   18   88 1    
    40   19   20 am   BACKBONE|DICT|INTERRES
    41   19   89 1    
    42   20   21 2    
    43   20   22 1    
    44   22   23 1    
    45   22   24 1    
    46   22   90 1    
    47   23   91 1    
    48   23   92 1    
    49   23   93 1    
    50   24   25 am   BACKBONE|DICT|INTERRES
    51   24   94 1    
    52   25   26 2    
    53   25   27 1    
    54   27   28 1    
    55   27   29 1    
    56   27   95 1    
    57   28   96 1    
    58   28   97 1    
    59   28   98 1    
    60   29   30 am   BACKBONE|DICT|INTERRES
    61   29   99 1    
    62   30   31 2    
    63   30   32 1    
    64   32   33 1    
    65   32   34 1    
    66   32  100 1    
    67   33  101 1    
    68   33  102 1    
    69   33  103 1    
    70   34   35 am   BACKBONE|DICT|INTERRES
    71   34  104 1    
    72   35   36 2    
    73   37   38 2    
    74   37   39 am   BACKBONE|DICT|INTERRES
    75   39   40 1    
    76   39  105 1    
    77   40   41 1    
    78   40   42 1    
    79   40  106 1    
    80   41  107 1    
    81   41  108 1    
    82   41  109 1    
    83   42   43 2    
    84   42   44 am   BACKBONE|DICT|INTERRES
    85   44   45 1    
    86   44  110 1    
    87   45   46 1    
    88   45   47 1    
    89   45  111 1    
    90   46  112 1    
    91   46  113 1    
    92   46  114 1    
    93   47   48 2    
    94   47   49 am   BACKBONE|DICT|INTERRES
    95   49   50 1    
    96   49  115 1    
    97   50   51 1    
    98   50   52 1    
    99   50  116 1    
   100   51  117 1    
   101   51  118 1    
   102   51  119 1    
   103   52   53 2    
   104   52   54 am   BACKBONE|DICT|INTERRES
   105   54   55 1    
   106   54  120 1    
   107   55   56 1    
   108   55   57 1    
   109   55  121 1    
   110   56  122 1    
   111   56  123 1    
   112   56  124 1    
   113   57   58 2    
   114   57   59 am   BACKBONE|DICT|INTERRES
   115   59   60 1    
   116   59  125 1    
   117   60   61 1    
   118   60   62 1    
   119   60  126 1    
   120   61  127 1    
   121   61  128 1    
   122   61  129 1    
   123   62   63 2    
   124   62   64 am   BACKBONE|DICT|INTERRES
   125   64   65 1    
   126   64  130 1    
   127   65   66 1    
   128   65   69 1    
   129   65  131 1    
   130   66   67 am   BACKBONE|DICT|INTERRES
   131   66   68 2    
   132   67  132 1    
   133   67  133 1    
   134   69   70 1    
   135   69  134 1    
   136   69  135 1    
   137   70   71 1    
   138   71  136 1    
   139   71  137 1    
@<TRIPOS>SUBSTRUCTURE
     1 UNK         1 GROUP             0       ****    0 ROOT    
