@<TRIPOS>MOLECULE
3R137
137   139    1
SMALL
USER_CHARGES


@<TRIPOS>ATOM
      1 CA         25.1306   -5.6150   -5.7046 C.3       0 UNK        -0.2020 
      2 C          25.2064   -5.1996   -4.2436 C.2       0 UNK         0.4855 
      3 O          24.2250   -4.6934   -3.6986 O.2       0 UNK        -0.5197 
      4 N          26.3637   -5.4032   -3.6013 N.am      1 UNK        -0.4892 
      5 CA         26.6409   -4.9654   -2.2294 C.3       1 UNK         0.0835 
      6 C6         27.9223   -5.6326   -1.6617 C.3       12 UNK        -0.0855 
      7 S7         29.4526   -5.2783   -2.6043 S.3       12 UNK        -0.2931 
      8 C8         30.2896   -4.1272   -1.4690 C.3       12 UNK         0.0378 
      9 C9         31.1529   -3.1236   -2.2164 C.ar      12 UNK        -0.0802 
     10 C10        32.5327   -3.3079   -2.3315 C.ar      12 UNK        -0.0944 
     11 C11        33.3252   -2.3483   -2.9710 C.ar      12 UNK        -0.0787 
     12 C12        32.7301   -1.1925   -3.4903 C.ar      12 UNK        -0.0862 
     13 C13        31.3483   -1.0017   -3.3865 C.ar      12 UNK        -0.0733 
     14 C14        30.5679   -1.9793   -2.7613 C.ar      12 UNK        -0.0832 
     15 C15        30.6848    0.2456   -3.9562 C.3       12 UNK         0.0240 
     16 S16        29.6607    1.0860   -2.6933 S.3       12 UNK        -0.2522 
     17 C17        28.6694    2.3394   -3.5864 C.3       12 UNK        -0.0967 
     18 CA         28.2794    2.0085   -5.0478 C.3       5 UNK         0.0660 
     19 N          27.6344    0.6977   -5.1691 N.am      5 UNK        -0.4015 
     20 C          27.4388    0.0554   -6.3289 C.2       4 UNK         0.4946 
     21 O          27.7685    0.5116   -7.4209 O.2       4 UNK        -0.5353 
     22 CA         26.6869   -1.2808   -6.2804 C.3       4 UNK         0.0277 
     23 CB         27.6841   -2.4469   -6.1970 C.3       4 UNK        -0.1981 
     24 N          25.7159   -1.3433   -5.1827 N.am      4 UNK        -0.4209 
     25 C          24.6470   -0.5337   -5.0829 C.2       3 UNK         0.4942 
     26 O          24.3842    0.3383   -5.9136 O.2       3 UNK        -0.5208 
     27 CA         23.7439   -0.6702   -3.8446 C.3       3 UNK         0.0250 
     28 CB         22.5132   -1.5293   -4.1723 C.3       3 UNK        -0.1990 
     29 N          24.4332   -1.2217   -2.6758 N.am      3 UNK        -0.4232 
     30 C          25.3997   -0.5867   -1.9950 C.2       2 UNK         0.4993 
     31 O          25.7714    0.5589   -2.2510 O.2       2 UNK        -0.5286 
     32 CA         26.1071   -1.3757   -0.8738 C.3       2 UNK         0.0209 
     33 CB         25.4596   -1.0731    0.4869 C.3       2 UNK        -0.1931 
     34 N          26.1497   -2.8321   -1.0813 N.am      2 UNK        -0.4546 
     35 C          26.6887   -3.4236   -2.1567 C.2       1 UNK         0.5154 
     36 O          27.1878   -2.7880   -3.0865 O.2       1 UNK        -0.5181 
     37 C          27.4285    3.1471   -5.6573 C.2       5 UNK         0.5014 
     38 O          27.9809    4.2079   -5.9497 O.2       5 UNK        -0.5248 
     39 N          26.1218    2.9162   -5.8532 N.am      6 UNK        -0.4434 
     40 CA         25.2258    3.8075   -6.5862 C.3       6 UNK         0.0363 
     41 CB         23.8662    3.8722   -5.8700 C.3       6 UNK        -0.1936 
     42 C          25.0535    3.3335   -8.0376 C.2       6 UNK         0.5081 
     43 O          25.1228    4.1561   -8.9507 O.2       6 UNK        -0.5248 
     44 N          24.8098    2.0281   -8.2272 N.am      7 UNK        -0.4718 
     45 CA         24.4722    1.4328   -9.5229 C.3       7 UNK         0.0273 
     46 CB         23.8478    0.0462   -9.2970 C.3       7 UNK        -0.1935 
     47 C          25.6492    1.3392  -10.5091 C.2       7 UNK         0.5018 
     48 O          25.4506    1.5952  -11.6977 O.2       7 UNK        -0.5186 
     49 N          26.8319    0.9518  -10.0159 N.am      8 UNK        -0.4240 
     50 CA         28.0379    0.7127  -10.8161 C.3       8 UNK         0.0235 
     51 CB         28.4607   -0.7572  -10.6496 C.3       8 UNK        -0.2000 
     52 C          29.2011    1.6357  -10.4243 C.2       8 UNK         0.4941 
     53 O          30.0978    1.8408  -11.2436 O.2       8 UNK        -0.5273 
     54 N          29.1989    2.1430   -9.1831 N.am      9 UNK        -0.4262 
     55 CA         30.2062    2.9872   -8.5250 C.3       9 UNK         0.0264 
     56 CB         30.4677    4.2959   -9.2960 C.3       9 UNK        -0.1955 
     57 C          31.5133    2.2470   -8.1960 C.2       9 UNK         0.5031 
     58 O          32.0037    2.3623   -7.0717 O.2       9 UNK        -0.5390 
     59 N          32.0470    1.4994   -9.1673 N.am      10 UNK        -0.4204 
     60 CA         33.2250    0.6459   -9.0303 C.3       10 UNK         0.0237 
     61 CB         33.6909    0.2217  -10.4330 C.3       10 UNK        -0.1985 
     62 C          32.9471   -0.5926   -8.1602 C.2       10 UNK         0.4970 
     63 O          31.8136   -1.0756   -8.1113 O.2       10 UNK        -0.4914 
     64 N          34.0118   -1.1038   -7.5318 N.am      11 UNK        -0.4285 
     65 CA         34.0196   -2.3503   -6.7497 C.3       11 UNK         0.1007 
     66 C          33.8314   -3.6388   -7.6083 C.2       11 UNK         0.5703 
     67 N          34.1496   -3.6229   -8.8983 N.am      11 UNK        -0.7361 
     68 O          33.3716   -4.6609   -7.1059 O.2       11 UNK        -0.4986 
     69 C69        35.3012   -2.4052   -5.8741 C.3       12 UNK        -0.0947 
     70 S70        35.2486   -3.6116   -4.5057 S.3       12 UNK        -0.2240 
     71 C71        34.8267   -2.5631   -3.0793 C.3       12 UNK         0.0194 
     72 H72        24.3595   -6.3729   -5.8395 H         1 UNK         0.0906 
     73 H73        26.0756   -6.0235   -6.0620 H         1 UNK         0.0906 
     74 H74        24.8761   -4.7555   -6.3246 H         1 UNK         0.0906 
     75 H75        27.1593   -5.7785   -4.0985 H         1 UNK         0.3140 
     76 H76        25.8007   -5.2962   -1.6144 H         1 UNK         0.1085 
     77 H77        27.7868   -6.7154   -1.6570 H         1 UNK         0.0836 
     78 H78        28.0573   -5.3627   -0.6127 H         1 UNK         0.0836 
     79 H79        29.5530   -3.5798   -0.8788 H         1 UNK         0.0731 
     80 H80        30.8881   -4.6972   -0.7567 H         1 UNK         0.0731 
     81 H81        32.9926   -4.1953   -1.9181 H         1 UNK         0.1312 
     82 H82        33.3422   -0.4473   -3.9800 H         1 UNK         0.1406 
     83 H83        29.4993   -1.8373   -2.6801 H         1 UNK         0.1631 
     84 H84        31.4272    0.9486   -4.3378 H         1 UNK         0.0717 
     85 H85        30.0886   -0.0715   -4.8090 H         1 UNK         0.0717 
     86 H86        27.7707    2.5167   -2.9916 H         1 UNK         0.0934 
     87 H87        29.2321    3.2748   -3.5572 H         1 UNK         0.0934 
     88 H88        29.1986    1.9724   -5.6353 H         1 UNK         0.0739 
     89 H89        27.3138    0.2734   -4.3088 H         1 UNK         0.3093 
     90 H90        26.1316   -1.3818   -7.2141 H         1 UNK         0.0818 
     91 H91        28.3164   -2.4771   -7.0855 H         1 UNK         0.0819 
     92 H92        28.3487   -2.3553   -5.3372 H         1 UNK         0.0819 
     93 H93        27.1753   -3.4075   -6.1278 H         1 UNK         0.0819 
     94 H94        25.9309   -1.9859   -4.4260 H         1 UNK         0.3041 
     95 H95        23.3976    0.3327   -3.5856 H         1 UNK         0.0784 
     96 H96        21.9564   -1.1070   -5.0102 H         1 UNK         0.0793 
     97 H97        22.7913   -2.5469   -4.4479 H         1 UNK         0.0793 
     98 H98        21.8292   -1.5846   -3.3253 H         1 UNK         0.0793 
     99 H99        24.2057   -2.1722   -2.4184 H         1 UNK         0.3024 
    100 H100       27.1405   -1.0214   -0.8478 H         1 UNK         0.1171 
    101 H101       25.4360    0.0010    0.6774 H         1 UNK         0.0786 
    102 H102       24.4318   -1.4352    0.5349 H         1 UNK         0.0786 
    103 H103       26.0174   -1.5315    1.3037 H         1 UNK         0.0786 
    104 H104       25.7459   -3.4048   -0.3534 H         1 UNK         0.2977 
    105 H105       25.7431    2.0119   -5.6000 H         1 UNK         0.3127 
    106 H106       25.6361    4.8195   -6.6111 H         1 UNK         0.0770 
    107 H107       23.3880    2.8939   -5.8084 H         1 UNK         0.0814 
    108 H108       23.1806    4.5371   -6.3970 H         1 UNK         0.0814 
    109 H109       23.9730    4.2556   -4.8553 H         1 UNK         0.0814 
    110 H110       24.7244    1.4209   -7.4155 H         1 UNK         0.2983 
    111 H111       23.7128    2.0654   -9.9885 H         1 UNK         0.0947 
    112 H112       24.5472   -0.6404   -8.8206 H         1 UNK         0.0806 
    113 H113       23.5422   -0.4036  -10.2427 H         1 UNK         0.0806 
    114 H114       22.9606    0.1086   -8.6663 H         1 UNK         0.0806 
    115 H115       26.9183    0.7773   -9.0172 H         1 UNK         0.3000 
    116 H116       27.8362    0.8904  -11.8745 H         1 UNK         0.0850 
    117 H117       29.3456   -0.9804  -11.2474 H         1 UNK         0.0810 
    118 H118       27.6713   -1.4355  -10.9733 H         1 UNK         0.0810 
    119 H119       28.7017   -0.9934   -9.6119 H         1 UNK         0.0810 
    120 H120       28.4942    1.7699   -8.5517 H         1 UNK         0.3040 
    121 H121       29.7689    3.2685   -7.5693 H         1 UNK         0.0766 
    122 H122       30.9458    4.1205  -10.2598 H         1 UNK         0.0812 
    123 H123       31.1251    4.9537   -8.7262 H         1 UNK         0.0812 
    124 H124       29.5404    4.8404   -9.4744 H         1 UNK         0.0812 
    125 H125       31.5430    1.4647  -10.0496 H         1 UNK         0.3205 
    126 H126       34.0149    1.2355   -8.5599 H         1 UNK         0.0754 
    127 H127       34.5994   -0.3796  -10.3829 H         1 UNK         0.0769 
    128 H128       33.9137    1.0886  -11.0557 H         1 UNK         0.0769 
    129 H129       32.9328   -0.3722  -10.9461 H         1 UNK         0.0769 
    130 H130       34.9066   -0.6510   -7.6448 H         1 UNK         0.2981 
    131 H131       33.1591   -2.3031   -6.0803 H         1 UNK         0.0541 
    132 H132       34.0157   -4.4571   -9.4475 H         1 UNK         0.3459 
    133 H133       34.5243   -2.7924   -9.3262 H         1 UNK         0.3459 
    134 H134       35.5009   -1.4218   -5.4461 H         1 UNK         0.0612 
    135 H135       36.1714   -2.6333   -6.4924 H         1 UNK         0.0612 
    136 H136       35.3552   -1.6105   -3.1364 H         1 UNK         0.0624 
    137 H137       35.1882   -3.0516   -2.1732 H         1 UNK         0.0624 
@<TRIPOS>BOND
     1    1    2 1    
     2    1   72 1    
     3    1   73 1    
     4    1   74 1    
     5    2    3 2    
     6    2    4 am   BACKBONE|DICT|INTERRES
     7    4    5 1    
     8    4   75 1    
     9    5    6 1    
    10    5   35 1    
    11    5   76 1    
    12    6    7 1    
    13    6   77 1    
    14    6   78 1    
    15    7    8 1    
    16    8    9 1    
    17    8   79 1    
    18    8   80 1    
    19    9   10 ar   
    20    9   14 ar   
    21   10   11 ar   
    22   10   81 1    
    23   11   12 ar   
    24   11   71 1    
    25   12   13 ar   
    26   12   82 1    
    27   13   14 ar   
    28   13   15 1    
    29   14   83 1    
    30   15   16 1    
    31   15   84 1    
    32   15   85 1    
    33   16   17 1    
    34   17   18 1    
    35   17   86 1    
    36   17   87 1    
    37   18   19 1    
    38   18   37 1    
    39   18   88 1    
    40   19   20 am   BACKBONE|DICT|INTERRES
    41   19   89 1    
    42   20   21 2    
    43   20   22 1    
    44   22   23 1    
    45   22   24 1    
    46   22   90 1    
    47   23   91 1    
    48   23   92 1    
    49   23   93 1    
    50   24   25 am   BACKBONE|DICT|INTERRES
    51   24   94 1    
    52   25   26 2    
    53   25   27 1    
    54   27   28 1    
    55   27   29 1    
    56   27   95 1    
    57   28   96 1    
    58   28   97 1    
    59   28   98 1    
    60   29   30 am   BACKBONE|DICT|INTERRES
    61   29   99 1    
    62   30   31 2    
    63   30   32 1    
    64   32   33 1    
    65   32   34 1    
    66   32  100 1    
    67   33  101 1    
    68   33  102 1    
    69   33  103 1    
    70   34   35 am   BACKBONE|DICT|INTERRES
    71   34  104 1    
    72   35   36 2    
    73   37   38 2    
    74   37   39 am   BACKBONE|DICT|INTERRES
    75   39   40 1    
    76   39  105 1    
    77   40   41 1    
    78   40   42 1    
    79   40  106 1    
    80   41  107 1    
    81   41  108 1    
    82   41  109 1    
    83   42   43 2    
    84   42   44 am   BACKBONE|DICT|INTERRES
    85   44   45 1    
    86   44  110 1    
    87   45   46 1    
    88   45   47 1    
    89   45  111 1    
    90   46  112 1    
    91   46  113 1    
    92   46  114 1    
    93   47   48 2    
    94   47   49 am   BACKBONE|DICT|INTERRES
    95   49   50 1    
    96   49  115 1    
    97   50   51 1    
    98   50   52 1    
    99   50  116 1    
   100   51  117 1    
   101   51  118 1    
   102   51  119 1    
   103   52   53 2    
   104   52   54 am   BACKBONE|DICT|INTERRES
   105   54   55 1    
   106   54  120 1    
   107   55   56 1    
   108   55   57 1    
   109   55  121 1    
   110   56  122 1    
   111   56  123 1    
   112   56  124 1    
   113   57   58 2    
   114   57   59 am   BACKBONE|DICT|INTERRES
   115   59   60 1    
   116   59  125 1    
   117   60   61 1    
   118   60   62 1    
   119   60  126 1    
   120   61  127 1    
   121   61  128 1    
   122   61  129 1    
   123   62   63 2    
   124   62   64 am   BACKBONE|DICT|INTERRES
   125   64   65 1    
   126   64  130 1    
   127   65   66 1    
   128   65   69 1    
   129   65  131 1    
   130   66   67 am   BACKBONE|DICT|INTERRES
   131   66   68 2    
   132   67  132 1    
   133   67  133 1    
   134   69   70 1    
   135   69  134 1    
   136   69  135 1    
   137   70   71 1    
   138   71  136 1    
   139   71  137 1    
@<TRIPOS>SUBSTRUCTURE
     1 UNK         1 GROUP             0       ****    0 ROOT    
