@<TRIPOS>MOLECULE
3R137
137   139    1
SMALL
USER_CHARGES


@<TRIPOS>ATOM
      1 CA         26.3591   -3.7373    1.4729 C.3       0 UNK        -0.2020 
      2 C          26.6150   -2.9304    0.2095 C.2       0 UNK         0.4855 
      3 O          26.8214   -3.5165   -0.8531 O.2       0 UNK        -0.5197 
      4 N          26.6072   -1.5944    0.3232 N.am      1 UNK        -0.4892 
      5 CA         26.8192   -0.5903   -0.7327 C.3       1 UNK         0.0835 
      6 C6         28.1987   -0.6843   -1.4394 C.3       12 UNK        -0.0855 
      7 S7         29.5954   -0.3305   -0.3168 S.3       12 UNK        -0.2931 
      8 C8         30.2918   -1.9845    0.0163 C.3       12 UNK         0.0378 
      9 C9         30.9010   -2.6168   -1.2272 C.ar      12 UNK        -0.0802 
     10 C10        32.1168   -2.1458   -1.7344 C.ar      12 UNK        -0.0944 
     11 C11        32.6629   -2.6991   -2.8971 C.ar      12 UNK        -0.0787 
     12 C12        31.9868   -3.7350   -3.5465 C.ar      12 UNK        -0.0862 
     13 C13        30.7550   -4.1888   -3.0692 C.ar      12 UNK        -0.0733 
     14 C14        30.2341   -3.6533   -1.8881 C.ar      12 UNK        -0.0832 
     15 C15        29.9335   -5.1610   -3.9047 C.3       12 UNK         0.0240 
     16 S16        28.3901   -4.4267   -4.5760 S.3       12 UNK        -0.2522 
     17 C17        28.7214   -2.6335   -4.7731 C.3       12 UNK        -0.0967 
     18 CA         28.7309   -2.1293   -6.2406 C.3       5 UNK         0.0660 
     19 N          27.4411   -2.3450   -6.8799 N.am      5 UNK        -0.4015 
     20 C          27.2109   -3.0506   -7.9922 C.2       4 UNK         0.4946 
     21 O          28.0825   -3.6690   -8.6053 O.2       4 UNK        -0.5353 
     22 CA         25.7600   -3.0903   -8.5192 C.3       4 UNK         0.0277 
     23 CB         25.1917   -4.5167   -8.4253 C.3       4 UNK        -0.1981 
     24 N          24.8484   -2.1755   -7.8242 N.am      4 UNK        -0.4209 
     25 C          24.8763   -0.8386   -7.9172 C.2       3 UNK         0.4942 
     26 O          25.6273   -0.2208   -8.6686 O.2       3 UNK        -0.5208 
     27 CA         23.9659   -0.0609   -6.9514 C.3       3 UNK         0.0250 
     28 CB         22.5823    0.1711   -7.5779 C.3       3 UNK        -0.1990 
     29 N          23.8136   -0.7181   -5.6452 N.am      3 UNK        -0.4232 
     30 C          24.8194   -0.9673   -4.7933 C.2       2 UNK         0.4993 
     31 O          25.9876   -0.6282   -5.0027 O.2       2 UNK        -0.5286 
     32 CA         24.4679   -1.7999   -3.5488 C.3       2 UNK         0.0209 
     33 CB         24.3779   -3.2893   -3.9224 C.3       2 UNK        -0.1931 
     34 N          25.4571   -1.6539   -2.4804 N.am      2 UNK        -0.4546 
     35 C          25.6612   -0.5507   -1.7524 C.2       1 UNK         0.5154 
     36 O          24.9669    0.4624   -1.8421 O.2       1 UNK        -0.5181 
     37 C          29.0709   -0.6241   -6.3662 C.2       5 UNK         0.5014 
     38 O          28.8832   -0.0329   -7.4329 O.2       5 UNK        -0.5248 
     39 N          29.5868   -0.0226   -5.2852 N.am      6 UNK        -0.4434 
     40 CA         30.0924    1.3478   -5.2151 C.3       6 UNK         0.0363 
     41 CB         30.7607    1.5555   -3.8454 C.3       6 UNK        -0.1936 
     42 C          29.0540    2.4566   -5.4617 C.2       6 UNK         0.5081 
     43 O          29.4562    3.5627   -5.8226 O.2       6 UNK        -0.5248 
     44 N          27.7610    2.1819   -5.2330 N.am      7 UNK        -0.4718 
     45 CA         26.7184    3.2144   -5.2289 C.3       7 UNK         0.0273 
     46 CB         25.5267    2.7552   -4.3765 C.3       7 UNK        -0.1935 
     47 C          26.2617    3.6848   -6.6212 C.2       7 UNK         0.5018 
     48 O          25.6362    4.7440   -6.6962 O.2       7 UNK        -0.5186 
     49 N          26.5717    2.9360   -7.6899 N.am      8 UNK        -0.4240 
     50 CA         26.2823    3.3520   -9.0658 C.3       8 UNK         0.0235 
     51 CB         24.8215    3.0528   -9.4556 C.3       8 UNK        -0.2000 
     52 C          27.2753    2.7585  -10.0696 C.2       8 UNK         0.4941 
     53 O          27.8763    3.5197  -10.8287 O.2       8 UNK        -0.5273 
     54 N          27.4293    1.4263  -10.0746 N.am      9 UNK        -0.4262 
     55 CA         28.2869    0.7010  -11.0210 C.3       9 UNK         0.0264 
     56 CB         28.0251   -0.8072  -10.9018 C.3       9 UNK        -0.1955 
     57 C          29.7891    0.9963  -10.8618 C.2       9 UNK         0.5031 
     58 O          30.4943    1.0291  -11.8714 O.2       9 UNK        -0.5390 
     59 N          30.2206    1.2154   -9.6108 N.am      10 UNK        -0.4204 
     60 CA         31.5847    1.4532   -9.1288 C.3       10 UNK         0.0237 
     61 CB         32.3160    2.5667   -9.9066 C.3       10 UNK        -0.1985 
     62 C          32.3872    0.1442   -9.0846 C.2       10 UNK         0.4970 
     63 O          32.6644   -0.4496  -10.1279 O.2       10 UNK        -0.4914 
     64 N          32.7453   -0.2823   -7.8680 N.am      11 UNK        -0.4285 
     65 CA         33.5075   -1.5122   -7.6051 C.3       11 UNK         0.1007 
     66 C          35.0362   -1.4232   -7.8923 C.2       11 UNK         0.5703 
     67 N          35.5921   -0.2550   -8.1922 N.am      11 UNK        -0.7361 
     68 O          35.7272   -2.4387   -7.8576 O.2       11 UNK        -0.4986 
     69 C69        33.1935   -2.0759   -6.1954 C.3       12 UNK        -0.0947 
     70 S70        33.6535   -0.9642   -4.8195 S.3       12 UNK        -0.2240 
     71 C71        33.9626   -2.1555   -3.4742 C.3       12 UNK         0.0194 
     72 H72        27.2084   -4.3882    1.6788 H         1 UNK         0.0906 
     73 H73        26.2023   -3.0992    2.3423 H         1 UNK         0.0906 
     74 H74        25.4749   -4.3614    1.3455 H         1 UNK         0.0906 
     75 H75        26.4122   -1.1970    1.2322 H         1 UNK         0.3140 
     76 H76        26.7899    0.3747   -0.2229 H         1 UNK         0.1085 
     77 H77        28.3324   -1.6578   -1.9071 H         1 UNK         0.0836 
     78 H78        28.2523    0.0428   -2.2516 H         1 UNK         0.0836 
     79 H79        31.0623   -1.8916    0.7830 H         1 UNK         0.0731 
     80 H80        29.5203   -2.6269    0.4412 H         1 UNK         0.0731 
     81 H81        32.6248   -1.3323   -1.2345 H         1 UNK         0.1312 
     82 H82        32.3918   -4.1503   -4.4581 H         1 UNK         0.1406 
     83 H83        29.2751   -3.9987   -1.5261 H         1 UNK         0.1631 
     84 H84        30.5229   -5.5393   -4.7412 H         1 UNK         0.0717 
     85 H85        29.6760   -6.0299   -3.2977 H         1 UNK         0.0717 
     86 H86        27.9516   -2.1132   -4.2027 H         1 UNK         0.0934 
     87 H87        29.6622   -2.3736   -4.2993 H         1 UNK         0.0934 
     88 H88        29.5151   -2.6645   -6.7795 H         1 UNK         0.0739 
     89 H89        26.6833   -1.8130   -6.4677 H         1 UNK         0.3093 
     90 H90        25.7926   -2.8009   -9.5716 H         1 UNK         0.0818 
     91 H91        24.1909   -4.5760   -8.8535 H         1 UNK         0.0819 
     92 H92        25.8171   -5.2236   -8.9725 H         1 UNK         0.0819 
     93 H93        25.1389   -4.8624   -7.3920 H         1 UNK         0.0819 
     94 H94        24.1940   -2.5940   -7.1799 H         1 UNK         0.3041 
     95 H95        24.4308    0.9127   -6.7896 H         1 UNK         0.0784 
     96 H96        22.6689    0.6644   -8.5470 H         1 UNK         0.0793 
     97 H97        22.0463   -0.7654   -7.7370 H         1 UNK         0.0793 
     98 H98        21.9641    0.8101   -6.9471 H         1 UNK         0.0793 
     99 H99        22.8824   -1.0274   -5.4040 H         1 UNK         0.3024 
    100 H100       23.5020   -1.4630   -3.1659 H         1 UNK         0.1171 
    101 H101       23.6062   -3.4666   -4.6724 H         1 UNK         0.0786 
    102 H102       25.3207   -3.6598   -4.3283 H         1 UNK         0.0786 
    103 H103       24.1275   -3.9004   -3.0548 H         1 UNK         0.0786 
    104 H104       26.0382   -2.4602   -2.2680 H         1 UNK         0.2977 
    105 H105       29.7024   -0.5696   -4.4458 H         1 UNK         0.3127 
    106 H106       30.8625    1.4494   -5.9782 H         1 UNK         0.0770 
    107 H107       30.0393    1.5002   -3.0298 H         1 UNK         0.0814 
    108 H108       31.2364    2.5356   -3.7889 H         1 UNK         0.0814 
    109 H109       31.5350    0.8125   -3.6559 H         1 UNK         0.0814 
    110 H110       27.4824    1.2396   -4.9872 H         1 UNK         0.2983 
    111 H111       27.1318    4.0977   -4.7359 H         1 UNK         0.0947 
    112 H112       24.7769    3.5432   -4.2959 H         1 UNK         0.0806 
    113 H113       25.8397    2.5055   -3.3631 H         1 UNK         0.0806 
    114 H114       25.0326    1.8852   -4.8000 H         1 UNK         0.0806 
    115 H115       27.1102    2.0891   -7.5609 H         1 UNK         0.3000 
    116 H116       26.4172    4.4349   -9.1244 H         1 UNK         0.0850 
    117 H117       24.6152    3.3909  -10.4718 H         1 UNK         0.0810 
    118 H118       24.5961    1.9891   -9.4185 H         1 UNK         0.0810 
    119 H119       24.1195    3.5650   -8.7977 H         1 UNK         0.0810 
    120 H120       26.8496    0.8546   -9.4595 H         1 UNK         0.3040 
    121 H121       27.9979    1.0130  -12.0269 H         1 UNK         0.0766 
    122 H122       26.9753   -1.0450  -11.0736 H         1 UNK         0.0812 
    123 H123       28.2984   -1.1770   -9.9140 H         1 UNK         0.0812 
    124 H124       28.6108   -1.3662  -11.6326 H         1 UNK         0.0812 
    125 H125       29.5453    1.0233   -8.8732 H         1 UNK         0.3205 
    126 H126       31.4657    1.8194   -8.1102 H         1 UNK         0.0754 
    127 H127       33.2508    2.8325   -9.4120 H         1 UNK         0.0769 
    128 H128       31.7107    3.4713   -9.9670 H         1 UNK         0.0769 
    129 H129       32.5684    2.2625  -10.9228 H         1 UNK         0.0769 
    130 H130       32.5202    0.2680   -7.0534 H         1 UNK         0.2981 
    131 H131       33.1420   -2.2613   -8.3105 H         1 UNK         0.0541 
    132 H132       35.0364    0.5836   -8.2244 H         1 UNK         0.3459 
    133 H133       36.5810   -0.2140   -8.3817 H         1 UNK         0.3459 
    134 H134       33.6935   -3.0370   -6.0655 H         1 UNK         0.0612 
    135 H135       32.1251   -2.2819   -6.1161 H         1 UNK         0.0612 
    136 H136       34.5368   -1.6550   -2.6932 H         1 UNK         0.0624 
    137 H137       34.5894   -2.9722   -3.8350 H         1 UNK         0.0624 
@<TRIPOS>BOND
     1    1    2 1    
     2    1   72 1    
     3    1   73 1    
     4    1   74 1    
     5    2    3 2    
     6    2    4 am   BACKBONE|DICT|INTERRES
     7    4    5 1    
     8    4   75 1    
     9    5    6 1    
    10    5   35 1    
    11    5   76 1    
    12    6    7 1    
    13    6   77 1    
    14    6   78 1    
    15    7    8 1    
    16    8    9 1    
    17    8   79 1    
    18    8   80 1    
    19    9   10 ar   
    20    9   14 ar   
    21   10   11 ar   
    22   10   81 1    
    23   11   12 ar   
    24   11   71 1    
    25   12   13 ar   
    26   12   82 1    
    27   13   14 ar   
    28   13   15 1    
    29   14   83 1    
    30   15   16 1    
    31   15   84 1    
    32   15   85 1    
    33   16   17 1    
    34   17   18 1    
    35   17   86 1    
    36   17   87 1    
    37   18   19 1    
    38   18   37 1    
    39   18   88 1    
    40   19   20 am   BACKBONE|DICT|INTERRES
    41   19   89 1    
    42   20   21 2    
    43   20   22 1    
    44   22   23 1    
    45   22   24 1    
    46   22   90 1    
    47   23   91 1    
    48   23   92 1    
    49   23   93 1    
    50   24   25 am   BACKBONE|DICT|INTERRES
    51   24   94 1    
    52   25   26 2    
    53   25   27 1    
    54   27   28 1    
    55   27   29 1    
    56   27   95 1    
    57   28   96 1    
    58   28   97 1    
    59   28   98 1    
    60   29   30 am   BACKBONE|DICT|INTERRES
    61   29   99 1    
    62   30   31 2    
    63   30   32 1    
    64   32   33 1    
    65   32   34 1    
    66   32  100 1    
    67   33  101 1    
    68   33  102 1    
    69   33  103 1    
    70   34   35 am   BACKBONE|DICT|INTERRES
    71   34  104 1    
    72   35   36 2    
    73   37   38 2    
    74   37   39 am   BACKBONE|DICT|INTERRES
    75   39   40 1    
    76   39  105 1    
    77   40   41 1    
    78   40   42 1    
    79   40  106 1    
    80   41  107 1    
    81   41  108 1    
    82   41  109 1    
    83   42   43 2    
    84   42   44 am   BACKBONE|DICT|INTERRES
    85   44   45 1    
    86   44  110 1    
    87   45   46 1    
    88   45   47 1    
    89   45  111 1    
    90   46  112 1    
    91   46  113 1    
    92   46  114 1    
    93   47   48 2    
    94   47   49 am   BACKBONE|DICT|INTERRES
    95   49   50 1    
    96   49  115 1    
    97   50   51 1    
    98   50   52 1    
    99   50  116 1    
   100   51  117 1    
   101   51  118 1    
   102   51  119 1    
   103   52   53 2    
   104   52   54 am   BACKBONE|DICT|INTERRES
   105   54   55 1    
   106   54  120 1    
   107   55   56 1    
   108   55   57 1    
   109   55  121 1    
   110   56  122 1    
   111   56  123 1    
   112   56  124 1    
   113   57   58 2    
   114   57   59 am   BACKBONE|DICT|INTERRES
   115   59   60 1    
   116   59  125 1    
   117   60   61 1    
   118   60   62 1    
   119   60  126 1    
   120   61  127 1    
   121   61  128 1    
   122   61  129 1    
   123   62   63 2    
   124   62   64 am   BACKBONE|DICT|INTERRES
   125   64   65 1    
   126   64  130 1    
   127   65   66 1    
   128   65   69 1    
   129   65  131 1    
   130   66   67 am   BACKBONE|DICT|INTERRES
   131   66   68 2    
   132   67  132 1    
   133   67  133 1    
   134   69   70 1    
   135   69  134 1    
   136   69  135 1    
   137   70   71 1    
   138   71  136 1    
   139   71  137 1    
@<TRIPOS>SUBSTRUCTURE
     1 UNK         1 GROUP             0       ****    0 ROOT    
