@<TRIPOS>MOLECULE
3R137
137   139    1
SMALL
USER_CHARGES


@<TRIPOS>ATOM
      1 CA         28.4312   -1.1205   -5.1941 C.3       0 UNK        -0.2020 
      2 C          28.4541   -2.4673   -4.4916 C.2       0 UNK         0.4855 
      3 O          27.6605   -2.6899   -3.5777 O.2       0 UNK        -0.5197 
      4 N          29.3503   -3.3676   -4.9180 N.am      1 UNK        -0.4892 
      5 CA         29.6066   -4.6979   -4.3563 C.3       1 UNK         0.0835 
      6 C6         30.1896   -4.6539   -2.9174 C.3       12 UNK        -0.0855 
      7 S7         31.8422   -3.8817   -2.8989 S.3       12 UNK        -0.2931 
      8 C8         31.7452   -2.7982   -1.4375 C.3       12 UNK         0.0378 
      9 C9         31.0369   -1.4757   -1.7100 C.ar      12 UNK        -0.0802 
     10 C10        31.5739   -0.5694   -2.6302 C.ar      12 UNK        -0.0944 
     11 C11        30.9839    0.6832   -2.8228 C.ar      12 UNK        -0.0787 
     12 C12        29.8589    1.0342   -2.0716 C.ar      12 UNK        -0.0862 
     13 C13        29.3144    0.1448   -1.1403 C.ar      12 UNK        -0.0733 
     14 C14        29.8978   -1.1177   -0.9794 C.ar      12 UNK        -0.0832 
     15 C15        28.1602    0.5780   -0.2411 C.3       12 UNK         0.0240 
     16 S16        26.5341    0.5147   -1.0607 S.3       12 UNK        -0.2522 
     17 C17        26.4911    2.0956   -1.9757 C.3       12 UNK        -0.0967 
     18 CA         26.3962    1.8527   -3.5005 C.3       5 UNK         0.0660 
     19 N          25.1011    1.2547   -3.8601 N.am      5 UNK        -0.4015 
     20 C          24.7809    0.7579   -5.0598 C.2       4 UNK         0.4946 
     21 O          25.5036    0.8460   -6.0519 O.2       4 UNK        -0.5353 
     22 CA         23.4220    0.0554   -5.1896 C.3       4 UNK         0.0277 
     23 CB         22.5218    0.7891   -6.1981 C.3       4 UNK        -0.1981 
     24 N          23.6324   -1.3222   -5.6326 N.am      4 UNK        -0.4209 
     25 C          24.1484   -2.2815   -4.8537 C.2       3 UNK         0.4942 
     26 O          24.3282   -2.1437   -3.6409 O.2       3 UNK        -0.5208 
     27 CA         24.5185   -3.6050   -5.5414 C.3       3 UNK         0.0250 
     28 CB         25.3048   -3.3908   -6.8518 C.3       3 UNK        -0.1990 
     29 N          25.3348   -4.4014   -4.6295 N.am      3 UNK        -0.4232 
     30 C          25.2219   -5.7173   -4.4150 C.2       2 UNK         0.4993 
     31 O          24.3868   -6.4325   -4.9730 O.2       2 UNK        -0.5286 
     32 CA         26.2201   -6.3332   -3.4103 C.3       2 UNK         0.0209 
     33 CB         26.3527   -7.8655   -3.5496 C.3       2 UNK        -0.1931 
     34 N          27.5384   -5.6832   -3.4524 N.am      2 UNK        -0.4546 
     35 C          28.3665   -5.6011   -4.5068 C.2       1 UNK         0.5154 
     36 O          28.1752   -6.1735   -5.5812 O.2       1 UNK        -0.5181 
     37 C          26.7708    3.1211   -4.3020 C.2       5 UNK         0.5014 
     38 O          27.9398    3.5083   -4.2930 O.2       5 UNK        -0.5248 
     39 N          25.7982    3.7364   -4.9890 N.am      6 UNK        -0.4434 
     40 CA         26.0102    4.8353   -5.9321 C.3       6 UNK         0.0363 
     41 CB         24.6717    5.5534   -6.1701 C.3       6 UNK        -0.1936 
     42 C          26.6202    4.3837   -7.2747 C.2       6 UNK         0.5081 
     43 O          27.1777    5.2233   -7.9837 O.2       6 UNK        -0.5248 
     44 N          26.5019    3.0937   -7.6256 N.am      7 UNK        -0.4718 
     45 CA         27.0311    2.5217   -8.8639 C.3       7 UNK         0.0273 
     46 CB         26.2305    1.2574   -9.2300 C.3       7 UNK        -0.1935 
     47 C          28.5323    2.2308   -8.7175 C.2       7 UNK         0.5018 
     48 O          28.9125    1.0941   -8.4347 O.2       7 UNK        -0.5186 
     49 N          29.3604    3.2641   -8.9266 N.am      8 UNK        -0.4240 
     50 CA         30.8254    3.2369   -8.8060 C.3       8 UNK         0.0235 
     51 CB         31.3908    4.6137   -9.1892 C.3       8 UNK        -0.2000 
     52 C          31.5270    2.1264   -9.6120 C.2       8 UNK         0.4941 
     53 O          32.5593    1.6205   -9.1732 O.2       8 UNK        -0.5273 
     54 N          30.9397    1.7384  -10.7526 N.am      9 UNK        -0.4262 
     55 CA         31.3916    0.6239  -11.5883 C.3       9 UNK         0.0264 
     56 CB         30.6378    0.6624  -12.9276 C.3       9 UNK        -0.1955 
     57 C          31.2352   -0.7593  -10.9257 C.2       9 UNK         0.5031 
     58 O          31.9743   -1.6758  -11.2879 O.2       9 UNK        -0.5390 
     59 N          30.2950   -0.8988   -9.9789 N.am      10 UNK        -0.4204 
     60 CA         30.0364   -2.1422   -9.2489 C.3       10 UNK         0.0237 
     61 CB         28.5348   -2.2369   -8.9208 C.3       10 UNK        -0.1985 
     62 C          30.8836   -2.2717   -7.9715 C.2       10 UNK         0.4970 
     63 O          30.8493   -3.3318   -7.3478 O.2       10 UNK        -0.4914 
     64 N          31.6034   -1.2141   -7.5740 N.am      11 UNK        -0.4285 
     65 CA         32.4642   -1.1939   -6.3785 C.3       11 UNK         0.1007 
     66 C          33.7720   -2.0308   -6.5062 C.2       11 UNK         0.5703 
     67 N          34.1468   -2.5135   -7.6857 N.am      11 UNK        -0.7361 
     68 O          34.4601   -2.2482   -5.5122 O.2       11 UNK        -0.4986 
     69 C69        32.7842    0.2554   -5.9324 C.3       12 UNK        -0.0947 
     70 S70        31.2909    1.2258   -5.5325 S.3       12 UNK        -0.2240 
     71 C71        31.5850    1.6865   -3.7973 C.3       12 UNK         0.0194 
     72 H72        29.1032   -1.0845   -6.0483 H         1 UNK         0.0906 
     73 H73        27.4262   -0.8898   -5.5428 H         1 UNK         0.0906 
     74 H74        28.7438   -0.3430   -4.4996 H         1 UNK         0.0906 
     75 H75        29.9230   -3.1615   -5.7325 H         1 UNK         0.3140 
     76 H76        30.3667   -5.1464   -4.9991 H         1 UNK         0.1085 
     77 H77        30.2946   -5.6624   -2.5126 H         1 UNK         0.0836 
     78 H78        29.5266   -4.1145   -2.2392 H         1 UNK         0.0836 
     79 H79        32.7612   -2.5798   -1.1057 H         1 UNK         0.0731 
     80 H80        31.2716   -3.3394   -0.6169 H         1 UNK         0.0731 
     81 H81        32.4630   -0.8375   -3.1834 H         1 UNK         0.1312 
     82 H82        29.4279    2.0166   -2.1963 H         1 UNK         0.1406 
     83 H83        29.4912   -1.8045   -0.2495 H         1 UNK         0.1631 
     84 H84        28.3437    1.5828    0.1421 H         1 UNK         0.0717 
     85 H85        28.1171   -0.0661    0.6385 H         1 UNK         0.0717 
     86 H86        25.6368    2.6788   -1.6269 H         1 UNK         0.0934 
     87 H87        27.3684    2.6894   -1.7174 H         1 UNK         0.0934 
     88 H88        27.1581    1.1190   -3.7647 H         1 UNK         0.0739 
     89 H89        24.4595    1.1145   -3.0928 H         1 UNK         0.3093 
     90 H90        22.9186    0.0440   -4.2202 H         1 UNK         0.0818 
     91 H91        22.9736    0.8319   -7.1903 H         1 UNK         0.0819 
     92 H92        21.5518    0.3007   -6.2924 H         1 UNK         0.0819 
     93 H93        22.3369    1.8162   -5.8808 H         1 UNK         0.0819 
     94 H94        23.5361   -1.4966   -6.6221 H         1 UNK         0.3041 
     95 H95        23.5849   -4.1268   -5.7616 H         1 UNK         0.0784 
     96 H96        24.6926   -2.9125   -7.6166 H         1 UNK         0.0793 
     97 H97        26.1851   -2.7664   -6.6960 H         1 UNK         0.0793 
     98 H98        25.6444   -4.3401   -7.2670 H         1 UNK         0.0793 
     99 H99        26.0149   -3.8697   -4.0917 H         1 UNK         0.3024 
    100 H100       25.8073   -6.1286   -2.4210 H         1 UNK         0.1171 
    101 H101       27.0581   -8.2705   -2.8242 H         1 UNK         0.0786 
    102 H102       25.3947   -8.3575   -3.3770 H         1 UNK         0.0786 
    103 H103       26.6901   -8.1557   -4.5450 H         1 UNK         0.0786 
    104 H104       27.7666   -5.1165   -2.6468 H         1 UNK         0.2977 
    105 H105       24.8658    3.3535   -4.9398 H         1 UNK         0.3127 
    106 H106       26.7044    5.5483   -5.4819 H         1 UNK         0.0770 
    107 H107       23.9308    4.8901   -6.6183 H         1 UNK         0.0814 
    108 H108       24.7992    6.4014   -6.8447 H         1 UNK         0.0814 
    109 H109       24.2578    5.9424   -5.2396 H         1 UNK         0.0814 
    110 H110       26.0892    2.4295   -6.9746 H         1 UNK         0.2983 
    111 H111       26.8982    3.2390   -9.6770 H         1 UNK         0.0947 
    112 H112       26.3384    0.4730   -8.4803 H         1 UNK         0.0806 
    113 H113       26.5719    0.8432  -10.1793 H         1 UNK         0.0806 
    114 H114       25.1676    1.4757   -9.3326 H         1 UNK         0.0806 
    115 H115       28.9384    4.1693   -9.0917 H         1 UNK         0.3000 
    116 H116       31.0529    3.0613   -7.7542 H         1 UNK         0.0850 
    117 H117       30.9912    5.3997   -8.5479 H         1 UNK         0.0810 
    118 H118       31.1593    4.8721  -10.2232 H         1 UNK         0.0810 
    119 H119       32.4766    4.6332   -9.0829 H         1 UNK         0.0810 
    120 H120       30.0972    2.2143  -11.0407 H         1 UNK         0.3040 
    121 H121       32.4551    0.7685  -11.7906 H         1 UNK         0.0766 
    122 H122       30.9739   -0.1390  -13.5874 H         1 UNK         0.0812 
    123 H123       30.8069    1.6027  -13.4526 H         1 UNK         0.0812 
    124 H124       29.5625    0.5410  -12.7902 H         1 UNK         0.0812 
    125 H125       29.7655   -0.0863   -9.6691 H         1 UNK         0.3205 
    126 H126       30.2881   -2.9938   -9.8845 H         1 UNK         0.0754 
    127 H127       28.3023   -3.1728   -8.4105 H         1 UNK         0.0769 
    128 H128       27.9298   -2.2057   -9.8270 H         1 UNK         0.0769 
    129 H129       28.2045   -1.4247   -8.2738 H         1 UNK         0.0769 
    130 H130       31.5876   -0.3655   -8.1224 H         1 UNK         0.2981 
    131 H131       31.8999   -1.6610   -5.5687 H         1 UNK         0.0541 
    132 H132       33.5949   -2.3382   -8.5099 H         1 UNK         0.3459 
    133 H133       34.9942   -3.0550   -7.7498 H         1 UNK         0.3459 
    134 H134       33.4492    0.2500   -5.0678 H         1 UNK         0.0612 
    135 H135       33.3278    0.7814   -6.7185 H         1 UNK         0.0612 
    136 H136       32.6520    1.8037   -3.6046 H         1 UNK         0.0624 
    137 H137       31.1459    2.6726   -3.6382 H         1 UNK         0.0624 
@<TRIPOS>BOND
     1    1    2 1    
     2    1   72 1    
     3    1   73 1    
     4    1   74 1    
     5    2    3 2    
     6    2    4 am   BACKBONE|DICT|INTERRES
     7    4    5 1    
     8    4   75 1    
     9    5    6 1    
    10    5   35 1    
    11    5   76 1    
    12    6    7 1    
    13    6   77 1    
    14    6   78 1    
    15    7    8 1    
    16    8    9 1    
    17    8   79 1    
    18    8   80 1    
    19    9   10 ar   
    20    9   14 ar   
    21   10   11 ar   
    22   10   81 1    
    23   11   12 ar   
    24   11   71 1    
    25   12   13 ar   
    26   12   82 1    
    27   13   14 ar   
    28   13   15 1    
    29   14   83 1    
    30   15   16 1    
    31   15   84 1    
    32   15   85 1    
    33   16   17 1    
    34   17   18 1    
    35   17   86 1    
    36   17   87 1    
    37   18   19 1    
    38   18   37 1    
    39   18   88 1    
    40   19   20 am   BACKBONE|DICT|INTERRES
    41   19   89 1    
    42   20   21 2    
    43   20   22 1    
    44   22   23 1    
    45   22   24 1    
    46   22   90 1    
    47   23   91 1    
    48   23   92 1    
    49   23   93 1    
    50   24   25 am   BACKBONE|DICT|INTERRES
    51   24   94 1    
    52   25   26 2    
    53   25   27 1    
    54   27   28 1    
    55   27   29 1    
    56   27   95 1    
    57   28   96 1    
    58   28   97 1    
    59   28   98 1    
    60   29   30 am   BACKBONE|DICT|INTERRES
    61   29   99 1    
    62   30   31 2    
    63   30   32 1    
    64   32   33 1    
    65   32   34 1    
    66   32  100 1    
    67   33  101 1    
    68   33  102 1    
    69   33  103 1    
    70   34   35 am   BACKBONE|DICT|INTERRES
    71   34  104 1    
    72   35   36 2    
    73   37   38 2    
    74   37   39 am   BACKBONE|DICT|INTERRES
    75   39   40 1    
    76   39  105 1    
    77   40   41 1    
    78   40   42 1    
    79   40  106 1    
    80   41  107 1    
    81   41  108 1    
    82   41  109 1    
    83   42   43 2    
    84   42   44 am   BACKBONE|DICT|INTERRES
    85   44   45 1    
    86   44  110 1    
    87   45   46 1    
    88   45   47 1    
    89   45  111 1    
    90   46  112 1    
    91   46  113 1    
    92   46  114 1    
    93   47   48 2    
    94   47   49 am   BACKBONE|DICT|INTERRES
    95   49   50 1    
    96   49  115 1    
    97   50   51 1    
    98   50   52 1    
    99   50  116 1    
   100   51  117 1    
   101   51  118 1    
   102   51  119 1    
   103   52   53 2    
   104   52   54 am   BACKBONE|DICT|INTERRES
   105   54   55 1    
   106   54  120 1    
   107   55   56 1    
   108   55   57 1    
   109   55  121 1    
   110   56  122 1    
   111   56  123 1    
   112   56  124 1    
   113   57   58 2    
   114   57   59 am   BACKBONE|DICT|INTERRES
   115   59   60 1    
   116   59  125 1    
   117   60   61 1    
   118   60   62 1    
   119   60  126 1    
   120   61  127 1    
   121   61  128 1    
   122   61  129 1    
   123   62   63 2    
   124   62   64 am   BACKBONE|DICT|INTERRES
   125   64   65 1    
   126   64  130 1    
   127   65   66 1    
   128   65   69 1    
   129   65  131 1    
   130   66   67 am   BACKBONE|DICT|INTERRES
   131   66   68 2    
   132   67  132 1    
   133   67  133 1    
   134   69   70 1    
   135   69  134 1    
   136   69  135 1    
   137   70   71 1    
   138   71  136 1    
   139   71  137 1    
@<TRIPOS>SUBSTRUCTURE
     1 UNK         1 GROUP             0       ****    0 ROOT    
