@<TRIPOS>MOLECULE
3R137
137   139    1
SMALL
USER_CHARGES


@<TRIPOS>ATOM
      1 CA         24.3849   -1.4918   -7.7627 C.3       0 UNK        -0.2020 
      2 C          25.0823   -2.2031   -6.6144 C.2       0 UNK         0.4855 
      3 O          25.0181   -1.7441   -5.4738 O.2       0 UNK        -0.5197 
      4 N          25.7341   -3.3372   -6.9001 N.am      1 UNK        -0.4892 
      5 CA         26.5640   -4.1206   -5.9702 C.3       1 UNK         0.0835 
      6 C6         27.8703   -3.3721   -5.5740 C.3       12 UNK        -0.0855 
      7 S7         29.3600   -4.3656   -5.9256 S.3       12 UNK        -0.2931 
      8 C8         29.9717   -4.7264   -4.2487 C.3       12 UNK         0.0378 
      9 C9         30.4348   -3.4636   -3.5376 C.ar      12 UNK        -0.0802 
     10 C10        31.5443   -2.7605   -4.0154 C.ar      12 UNK        -0.0944 
     11 C11        31.9588   -1.5805   -3.3937 C.ar      12 UNK        -0.0787 
     12 C12        31.2717   -1.1201   -2.2680 C.ar      12 UNK        -0.0862 
     13 C13        30.1525   -1.8071   -1.7879 C.ar      12 UNK        -0.0733 
     14 C14        29.7437   -2.9851   -2.4200 C.ar      12 UNK        -0.0832 
     15 C15        29.3678   -1.2555   -0.6064 C.3       12 UNK         0.0240 
     16 S16        27.7730   -0.5335   -1.1181 S.3       12 UNK        -0.2522 
     17 C17        28.2816    0.6983   -2.3674 C.3       12 UNK        -0.0967 
     18 CA         27.8197    0.2728   -3.7917 C.3       5 UNK         0.0660 
     19 N          26.3636    0.3159   -3.9642 N.am      5 UNK        -0.4015 
     20 C          25.5723    1.3933   -3.8568 C.2       4 UNK         0.4946 
     21 O          25.9893    2.5413   -3.6970 O.2       4 UNK        -0.5353 
     22 CA         24.0521    1.1613   -3.9132 C.3       4 UNK         0.0277 
     23 CB         23.5035    1.4373   -5.3204 C.3       4 UNK        -0.1981 
     24 N          23.6470   -0.1808   -3.4800 N.am      4 UNK        -0.4209 
     25 C          23.6329   -0.5807   -2.2007 C.2       3 UNK         0.4942 
     26 O          23.9785    0.1376   -1.2621 O.2       3 UNK        -0.5208 
     27 CA         23.1014   -1.9870   -1.8910 C.3       3 UNK         0.0250 
     28 CB         21.5739   -1.9186   -1.6735 C.3       3 UNK        -0.1990 
     29 N          23.4387   -3.0026   -2.9004 N.am      3 UNK        -0.4232 
     30 C          23.3209   -4.3221   -2.6745 C.2       2 UNK         0.4993 
     31 O          22.9992   -4.7986   -1.5844 O.2       2 UNK        -0.5286 
     32 CA         23.5615   -5.2944   -3.8429 C.3       2 UNK         0.0209 
     33 CB         22.2236   -5.6818   -4.4951 C.3       2 UNK        -0.1931 
     34 N          24.4610   -4.7830   -4.8748 N.am      2 UNK        -0.4546 
     35 C          25.7913   -4.6839   -4.7507 C.2       1 UNK         0.5154 
     36 O          26.3988   -5.0309   -3.7363 O.2       1 UNK        -0.5181 
     37 C          28.5283    1.0312   -4.9294 C.2       5 UNK         0.5014 
     38 O          28.7416    0.4490   -5.9927 O.2       5 UNK        -0.5248 
     39 N          28.8484    2.3151   -4.7109 N.am      6 UNK        -0.4434 
     40 CA         29.5940    3.1888   -5.6268 C.3       6 UNK         0.0363 
     41 CB         29.9639    4.4850   -4.8875 C.3       6 UNK        -0.1936 
     42 C          28.8970    3.4977   -6.9684 C.2       6 UNK         0.5081 
     43 O          29.5101    4.1232   -7.8340 O.2       6 UNK        -0.5248 
     44 N          27.6432    3.0589   -7.1357 N.am      7 UNK        -0.4718 
     45 CA         26.9417    3.0441   -8.4195 C.3       7 UNK         0.0273 
     46 CB         25.4378    2.8597   -8.1683 C.3       7 UNK        -0.1935 
     47 C          27.4640    1.9520   -9.3749 C.2       7 UNK         0.5018 
     48 O          27.2901    2.0943  -10.5863 O.2       7 UNK        -0.5186 
     49 N          28.0725    0.8851   -8.8342 N.am      8 UNK        -0.4240 
     50 CA         28.6716   -0.2006   -9.6096 C.3       8 UNK         0.0235 
     51 CB         28.6264   -1.4950   -8.7833 C.3       8 UNK        -0.2000 
     52 C          30.1226    0.1342   -9.9773 C.2       8 UNK         0.4941 
     53 O          30.8108    0.8236   -9.2208 O.2       8 UNK        -0.5273 
     54 N          30.5925   -0.4318  -11.0972 N.am      9 UNK        -0.4262 
     55 CA         31.9420   -0.2496  -11.6529 C.3       9 UNK         0.0264 
     56 CB         32.0161   -0.9553  -13.0177 C.3       9 UNK        -0.1955 
     57 C          33.1030   -0.7084  -10.7450 C.2       9 UNK         0.5031 
     58 O          34.2533   -0.3725  -11.0303 O.2       9 UNK        -0.5390 
     59 N          32.7916   -1.4507   -9.6735 N.am      10 UNK        -0.4204 
     60 CA         33.7195   -1.8693   -8.6230 C.3       10 UNK         0.0237 
     61 CB         32.9892   -2.8243   -7.6643 C.3       10 UNK        -0.1985 
     62 C          34.3404   -0.6986   -7.8370 C.2       10 UNK         0.4970 
     63 O          35.4795   -0.8312   -7.3872 O.2       10 UNK        -0.4914 
     64 N          33.6022    0.4092   -7.6831 N.am      11 UNK        -0.4285 
     65 CA         34.0492    1.6063   -6.9508 C.3       11 UNK         0.1007 
     66 C          33.3138    2.9229   -7.3294 C.2       11 UNK         0.5703 
     67 N          32.3008    2.9196   -8.1847 N.am      11 UNK        -0.7361 
     68 O          33.6907    3.9901   -6.8509 O.2       11 UNK        -0.4986 
     69 C69        34.1309    1.3892   -5.4109 C.3       12 UNK        -0.0947 
     70 S70        32.5752    0.7831   -4.6739 S.3       12 UNK        -0.2240 
     71 C71        33.1321   -0.7899   -3.9487 C.3       12 UNK         0.0194 
     72 H72        23.3549   -1.2597   -7.4937 H         1 UNK         0.0906 
     73 H73        24.9007   -0.5599   -7.9906 H         1 UNK         0.0906 
     74 H74        24.3683   -2.0989   -8.6675 H         1 UNK         0.0906 
     75 H75        25.7189   -3.6841   -7.8499 H         1 UNK         0.3140 
     76 H76        26.8335   -5.0102   -6.5420 H         1 UNK         0.1085 
     77 H77        27.8573   -3.0519   -4.5320 H         1 UNK         0.0836 
     78 H78        27.9755   -2.4436   -6.1349 H         1 UNK         0.0836 
     79 H79        29.1910   -5.2353   -3.6810 H         1 UNK         0.0731 
     80 H80        30.8070   -5.4245   -4.3184 H         1 UNK         0.0731 
     81 H81        32.0685   -3.1257   -4.8869 H         1 UNK         0.1312 
     82 H82        31.5906   -0.2039   -1.7897 H         1 UNK         0.1406 
     83 H83        28.8718   -3.5126   -2.0561 H         1 UNK         0.1631 
     84 H84        29.9472   -0.4982   -0.0759 H         1 UNK         0.0717 
     85 H85        29.1809   -2.0554    0.1114 H         1 UNK         0.0717 
     86 H86        27.8624    1.6629   -2.0795 H         1 UNK         0.0934 
     87 H87        29.3631    0.8298   -2.3285 H         1 UNK         0.0934 
     88 H88        28.1075   -0.7705   -3.9259 H         1 UNK         0.0739 
     89 H89        25.9216   -0.5618   -4.2219 H         1 UNK         0.3093 
     90 H90        23.5950    1.8850   -3.2345 H         1 UNK         0.0818 
     91 H91        22.4181    1.3416   -5.3501 H         1 UNK         0.0819 
     92 H92        23.7457    2.4519   -5.6387 H         1 UNK         0.0819 
     93 H93        23.9214    0.7527   -6.0559 H         1 UNK         0.0819 
     94 H94        23.3896   -0.8261   -4.2131 H         1 UNK         0.3041 
     95 H95        23.5681   -2.2865   -0.9496 H         1 UNK         0.0784 
     96 H96        21.1785   -2.8502   -1.2692 H         1 UNK         0.0793 
     97 H97        21.3124   -1.1319   -0.9641 H         1 UNK         0.0793 
     98 H98        21.0455   -1.7075   -2.6039 H         1 UNK         0.0793 
     99 H99        23.7995   -2.6864   -3.7920 H         1 UNK         0.3024 
    100 H100       24.0077   -6.1981   -3.4204 H         1 UNK         0.1171 
    101 H101       21.7311   -4.8214   -4.9502 H         1 UNK         0.0786 
    102 H102       21.5355   -6.0977   -3.7574 H         1 UNK         0.0786 
    103 H103       22.3621   -6.4386   -5.2675 H         1 UNK         0.0786 
    104 H104       24.0432   -4.4721   -5.7400 H         1 UNK         0.2977 
    105 H105       28.5346    2.7375   -3.8484 H         1 UNK         0.3127 
    106 H106       30.5197    2.6694   -5.8799 H         1 UNK         0.0770 
    107 H107       29.0773    5.0473   -4.5921 H         1 UNK         0.0814 
    108 H108       30.5693    5.1364   -5.5197 H         1 UNK         0.0814 
    109 H109       30.5492    4.2776   -3.9914 H         1 UNK         0.0814 
    110 H110       27.2068    2.5756   -6.3639 H         1 UNK         0.2983 
    111 H111       27.0925    4.0092   -8.9086 H         1 UNK         0.0947 
    112 H112       24.8790    2.8945   -9.1047 H         1 UNK         0.0806 
    113 H113       25.0416    3.6462   -7.5258 H         1 UNK         0.0806 
    114 H114       25.2272    1.8991   -7.6999 H         1 UNK         0.0806 
    115 H115       28.2524    0.8668   -7.8334 H         1 UNK         0.3000 
    116 H116       28.0953   -0.3523  -10.5250 H         1 UNK         0.0850 
    117 H117       29.2420   -1.4206   -7.8855 H         1 UNK         0.0810 
    118 H118       27.6085   -1.7291   -8.4747 H         1 UNK         0.0810 
    119 H119       28.9929   -2.3460   -9.3585 H         1 UNK         0.0810 
    120 H120       29.9664   -1.0098  -11.6402 H         1 UNK         0.3040 
    121 H121       32.0803    0.8213  -11.8157 H         1 UNK         0.0766 
    122 H122       31.2704   -0.5638  -13.7099 H         1 UNK         0.0812 
    123 H123       31.8591   -2.0306  -12.9246 H         1 UNK         0.0812 
    124 H124       32.9920   -0.8084  -13.4830 H         1 UNK         0.0812 
    125 H125       31.8179   -1.6723   -9.5307 H         1 UNK         0.3205 
    126 H126       34.5361   -2.4152   -9.1000 H         1 UNK         0.0754 
    127 H127       33.6573   -3.1705   -6.8743 H         1 UNK         0.0769 
    128 H128       32.6213   -3.7087   -8.1850 H         1 UNK         0.0769 
    129 H129       32.1377   -2.3390   -7.1846 H         1 UNK         0.0769 
    130 H130       32.6730    0.4495   -8.0819 H         1 UNK         0.2981 
    131 H131       35.0696    1.7953   -7.2897 H         1 UNK         0.0541 
    132 H132       31.8315    3.7925   -8.3705 H         1 UNK         0.3459 
    133 H133       31.8957    2.0713   -8.5717 H         1 UNK         0.3459 
    134 H134       34.4165    2.3098   -4.8991 H         1 UNK         0.0612 
    135 H135       34.9321    0.6843   -5.1865 H         1 UNK         0.0612 
    136 H136       33.6593   -1.3686   -4.7091 H         1 UNK         0.0624 
    137 H137       33.8494   -0.5889   -3.1518 H         1 UNK         0.0624 
@<TRIPOS>BOND
     1    1    2 1    
     2    1   72 1    
     3    1   73 1    
     4    1   74 1    
     5    2    3 2    
     6    2    4 am   BACKBONE|DICT|INTERRES
     7    4    5 1    
     8    4   75 1    
     9    5    6 1    
    10    5   35 1    
    11    5   76 1    
    12    6    7 1    
    13    6   77 1    
    14    6   78 1    
    15    7    8 1    
    16    8    9 1    
    17    8   79 1    
    18    8   80 1    
    19    9   10 ar   
    20    9   14 ar   
    21   10   11 ar   
    22   10   81 1    
    23   11   12 ar   
    24   11   71 1    
    25   12   13 ar   
    26   12   82 1    
    27   13   14 ar   
    28   13   15 1    
    29   14   83 1    
    30   15   16 1    
    31   15   84 1    
    32   15   85 1    
    33   16   17 1    
    34   17   18 1    
    35   17   86 1    
    36   17   87 1    
    37   18   19 1    
    38   18   37 1    
    39   18   88 1    
    40   19   20 am   BACKBONE|DICT|INTERRES
    41   19   89 1    
    42   20   21 2    
    43   20   22 1    
    44   22   23 1    
    45   22   24 1    
    46   22   90 1    
    47   23   91 1    
    48   23   92 1    
    49   23   93 1    
    50   24   25 am   BACKBONE|DICT|INTERRES
    51   24   94 1    
    52   25   26 2    
    53   25   27 1    
    54   27   28 1    
    55   27   29 1    
    56   27   95 1    
    57   28   96 1    
    58   28   97 1    
    59   28   98 1    
    60   29   30 am   BACKBONE|DICT|INTERRES
    61   29   99 1    
    62   30   31 2    
    63   30   32 1    
    64   32   33 1    
    65   32   34 1    
    66   32  100 1    
    67   33  101 1    
    68   33  102 1    
    69   33  103 1    
    70   34   35 am   BACKBONE|DICT|INTERRES
    71   34  104 1    
    72   35   36 2    
    73   37   38 2    
    74   37   39 am   BACKBONE|DICT|INTERRES
    75   39   40 1    
    76   39  105 1    
    77   40   41 1    
    78   40   42 1    
    79   40  106 1    
    80   41  107 1    
    81   41  108 1    
    82   41  109 1    
    83   42   43 2    
    84   42   44 am   BACKBONE|DICT|INTERRES
    85   44   45 1    
    86   44  110 1    
    87   45   46 1    
    88   45   47 1    
    89   45  111 1    
    90   46  112 1    
    91   46  113 1    
    92   46  114 1    
    93   47   48 2    
    94   47   49 am   BACKBONE|DICT|INTERRES
    95   49   50 1    
    96   49  115 1    
    97   50   51 1    
    98   50   52 1    
    99   50  116 1    
   100   51  117 1    
   101   51  118 1    
   102   51  119 1    
   103   52   53 2    
   104   52   54 am   BACKBONE|DICT|INTERRES
   105   54   55 1    
   106   54  120 1    
   107   55   56 1    
   108   55   57 1    
   109   55  121 1    
   110   56  122 1    
   111   56  123 1    
   112   56  124 1    
   113   57   58 2    
   114   57   59 am   BACKBONE|DICT|INTERRES
   115   59   60 1    
   116   59  125 1    
   117   60   61 1    
   118   60   62 1    
   119   60  126 1    
   120   61  127 1    
   121   61  128 1    
   122   61  129 1    
   123   62   63 2    
   124   62   64 am   BACKBONE|DICT|INTERRES
   125   64   65 1    
   126   64  130 1    
   127   65   66 1    
   128   65   69 1    
   129   65  131 1    
   130   66   67 am   BACKBONE|DICT|INTERRES
   131   66   68 2    
   132   67  132 1    
   133   67  133 1    
   134   69   70 1    
   135   69  134 1    
   136   69  135 1    
   137   70   71 1    
   138   71  136 1    
   139   71  137 1    
@<TRIPOS>SUBSTRUCTURE
     1 UNK         1 GROUP             0       ****    0 ROOT    
