@<TRIPOS>MOLECULE
3R137
137   139    1
SMALL
USER_CHARGES


@<TRIPOS>ATOM
      1 CA         31.3501    0.4836    0.7255 C.3       0 UNK        -0.2020 
      2 C          30.3087   -0.5174    0.2479 C.2       0 UNK         0.4855 
      3 O          29.4099   -0.8669    1.0136 O.2       0 UNK        -0.5197 
      4 N          30.4290   -0.9724   -1.0071 N.am      1 UNK        -0.4892 
      5 CA         29.5212   -1.8946   -1.7052 C.3       1 UNK         0.0835 
      6 C6         29.3865   -3.2938   -1.0291 C.3       12 UNK        -0.0855 
      7 S7         30.9952   -4.1165   -0.7568 S.3       12 UNK        -0.2931 
      8 C8         30.8952   -5.5640   -1.8584 C.3       12 UNK         0.0378 
      9 C9         30.9493   -5.1711   -3.3271 C.ar      12 UNK        -0.0802 
     10 C10        32.1036   -4.5826   -3.8521 C.ar      12 UNK        -0.0944 
     11 C11        32.1623   -4.2099   -5.1975 C.ar      12 UNK        -0.0787 
     12 C12        31.0619   -4.4488   -6.0248 C.ar      12 UNK        -0.0862 
     13 C13        29.8968   -5.0225   -5.5091 C.ar      12 UNK        -0.0733 
     14 C14        29.8501   -5.3945   -4.1617 C.ar      12 UNK        -0.0832 
     15 C15        28.6762   -5.1929   -6.4032 C.3       12 UNK         0.0240 
     16 S16        27.2303   -4.2663   -5.7891 S.3       12 UNK        -0.2522 
     17 C17        27.8795   -2.5660   -5.6203 C.3       12 UNK        -0.0967 
     18 CA         27.3795   -1.6137   -6.7269 C.3       5 UNK         0.0660 
     19 N          25.9165   -1.5585   -6.7860 N.am      5 UNK        -0.4015 
     20 C          25.2049   -0.9023   -7.7121 C.2       4 UNK         0.4946 
     21 O          25.7126   -0.2892   -8.6509 O.2       4 UNK        -0.5353 
     22 CA         23.6772   -0.8656   -7.5412 C.3       4 UNK         0.0277 
     23 CB         23.0206   -1.9566   -8.4010 C.3       4 UNK        -0.1981 
     24 N          23.2126   -0.9883   -6.1541 N.am      4 UNK        -0.4209 
     25 C          23.5640   -0.1865   -5.1377 C.2       3 UNK         0.4942 
     26 O          24.3676    0.7417   -5.2496 O.2       3 UNK        -0.5208 
     27 CA         22.9208   -0.4552   -3.7642 C.3       3 UNK         0.0250 
     28 CB         22.0924   -1.7598   -3.6872 C.3       3 UNK        -0.1990 
     29 N          23.9091   -0.4041   -2.6810 N.am      3 UNK        -0.4232 
     30 C          24.9823   -1.1937   -2.5244 C.2       2 UNK         0.4993 
     31 O          25.2939   -2.1039   -3.2963 O.2       2 UNK        -0.5286 
     32 CA         25.8000   -0.9410   -1.2456 C.3       2 UNK         0.0209 
     33 CB         25.0284   -1.4310   -0.0067 C.3       2 UNK        -0.1931 
     34 N          27.1120   -1.5904   -1.2517 N.am      2 UNK        -0.4546 
     35 C          28.1766   -1.1732   -1.9491 C.2       1 UNK         0.5154 
     36 O          28.1457   -0.2222   -2.7313 O.2       1 UNK        -0.5181 
     37 C          28.0267   -0.2232   -6.5542 C.2       5 UNK         0.5014 
     38 O          29.1406   -0.0198   -7.0379 O.2       5 UNK        -0.5248 
     39 N          27.3254    0.7204   -5.9098 N.am      6 UNK        -0.4434 
     40 CA         27.7820    2.1011   -5.7494 C.3       6 UNK         0.0363 
     41 CB         27.0330    2.7527   -4.5763 C.3       6 UNK        -0.1936 
     42 C          27.6187    2.9426   -7.0276 C.2       6 UNK         0.5081 
     43 O          28.2589    3.9885   -7.1318 O.2       6 UNK        -0.5248 
     44 N          26.7727    2.4922   -7.9642 N.am      7 UNK        -0.4718 
     45 CA         26.4665    3.1882   -9.2129 C.3       7 UNK         0.0273 
     46 CB         24.9427    3.1964   -9.4266 C.3       7 UNK        -0.1935 
     47 C          27.1787    2.5402  -10.4071 C.2       7 UNK         0.5018 
     48 O          27.8483    3.2445  -11.1629 O.2       7 UNK        -0.5186 
     49 N          27.0062    1.2215  -10.5706 N.am      8 UNK        -0.4240 
     50 CA         27.5018    0.4581  -11.7158 C.3       8 UNK         0.0235 
     51 CB         26.6727   -0.8281  -11.8773 C.3       8 UNK        -0.2000 
     52 C          28.9971    0.1406  -11.5966 C.2       8 UNK         0.4941 
     53 O          29.7584    0.4546  -12.5122 O.2       8 UNK        -0.5273 
     54 N          29.3880   -0.4793  -10.4748 N.am      9 UNK        -0.4262 
     55 CA         30.7753   -0.8664  -10.1989 C.3       9 UNK         0.0264 
     56 CB         30.7857   -2.1056   -9.2880 C.3       9 UNK        -0.1955 
     57 C          31.6054    0.2803   -9.5922 C.2       9 UNK         0.5031 
     58 O          32.8337    0.2283   -9.6635 O.2       9 UNK        -0.5390 
     59 N          30.9229    1.2843   -9.0192 N.am      10 UNK        -0.4204 
     60 CA         31.4606    2.4504   -8.3078 C.3       10 UNK         0.0237 
     61 CB         32.2739    3.3577   -9.2558 C.3       10 UNK        -0.1985 
     62 C          32.2240    2.0679   -7.0235 C.2       10 UNK         0.4970 
     63 O          33.2168    2.7133   -6.6823 O.2       10 UNK        -0.4914 
     64 N          31.7380    1.0314   -6.3302 N.am      11 UNK        -0.4285 
     65 CA         32.3282    0.4762   -5.1011 C.3       11 UNK         0.1007 
     66 C          31.8185    1.1477   -3.7929 C.2       11 UNK         0.5703 
     67 N          31.1025    2.2640   -3.8463 N.am      11 UNK        -0.7361 
     68 O          32.0880    0.6519   -2.7015 O.2       11 UNK        -0.4986 
     69 C69        32.1787   -1.0665   -5.0559 C.3       12 UNK        -0.0947 
     70 S70        33.0316   -1.8816   -6.4472 S.3       12 UNK        -0.2240 
     71 C71        33.4042   -3.5223   -5.7481 C.3       12 UNK         0.0194 
     72 H72        31.7849    0.1522    1.6681 H         1 UNK         0.0906 
     73 H73        32.1601    0.6045    0.0065 H         1 UNK         0.0906 
     74 H74        30.8886    1.4575    0.8856 H         1 UNK         0.0906 
     75 H75        31.1480   -0.5575   -1.5961 H         1 UNK         0.3140 
     76 H76        29.9556   -2.0556   -2.6937 H         1 UNK         0.1085 
     77 H77        28.9024   -3.2183   -0.0546 H         1 UNK         0.0836 
     78 H78        28.7497   -3.9417   -1.6343 H         1 UNK         0.0836 
     79 H79        29.9900   -6.1300   -1.6324 H         1 UNK         0.0731 
     80 H80        31.7324   -6.2287   -1.6405 H         1 UNK         0.0731 
     81 H81        32.9493   -4.3993   -3.2032 H         1 UNK         0.1312 
     82 H82        31.1041   -4.1505   -7.0633 H         1 UNK         0.1406 
     83 H83        28.9470   -5.8363   -3.7624 H         1 UNK         0.1631 
     84 H84        28.4207   -6.2516   -6.4632 H         1 UNK         0.0717 
     85 H85        28.8903   -4.8680   -7.4228 H         1 UNK         0.0717 
     86 H86        27.5743   -2.1971   -4.6410 H         1 UNK         0.0934 
     87 H87        28.9694   -2.5779   -5.6008 H         1 UNK         0.0934 
     88 H88        27.7229   -2.0038   -7.6872 H         1 UNK         0.0739 
     89 H89        25.4269   -2.0252   -6.0345 H         1 UNK         0.3093 
     90 H90        23.3413    0.1066   -7.9079 H         1 UNK         0.0818 
     91 H91        21.9335   -1.8763   -8.3848 H         1 UNK         0.0819 
     92 H92        23.3330   -1.8725   -9.4432 H         1 UNK         0.0819 
     93 H93        23.2904   -2.9571   -8.0602 H         1 UNK         0.0819 
     94 H94        22.5545   -1.7303   -5.9636 H         1 UNK         0.3041 
     95 H95        22.2371    0.3771   -3.5905 H         1 UNK         0.0784 
     96 H96        21.2534   -1.7422   -4.3840 H         1 UNK         0.0793 
     97 H97        22.6931   -2.6436   -3.9063 H         1 UNK         0.0793 
     98 H98        21.6688   -1.8929   -2.6916 H         1 UNK         0.0793 
     99 H99        23.7579    0.3290   -2.0023 H         1 UNK         0.3024 
    100 H100       25.9600    0.1365   -1.1580 H         1 UNK         0.1171 
    101 H101       24.0635   -0.9312    0.0867 H         1 UNK         0.0786 
    102 H102       24.8351   -2.5038   -0.0519 H         1 UNK         0.0786 
    103 H103       25.5818   -1.2283    0.9108 H         1 UNK         0.0786 
    104 H104       27.2219   -2.3796   -0.6334 H         1 UNK         0.2977 
    105 H105       26.3959    0.5082   -5.5597 H         1 UNK         0.3127 
    106 H106       28.8442    2.0843   -5.5015 H         1 UNK         0.0770 
    107 H107       25.9642    2.8362   -4.7751 H         1 UNK         0.0814 
    108 H108       27.4082    3.7589   -4.3857 H         1 UNK         0.0814 
    109 H109       27.1608    2.1804   -3.6574 H         1 UNK         0.0814 
    110 H110       26.3224    1.5964   -7.8224 H         1 UNK         0.2983 
    111 H111       26.7975    4.2280   -9.1575 H         1 UNK         0.0947 
    112 H112       24.6818    3.7002  -10.3584 H         1 UNK         0.0806 
    113 H113       24.4355    3.7262   -8.6201 H         1 UNK         0.0806 
    114 H114       24.5291    2.1882   -9.4733 H         1 UNK         0.0806 
    115 H115       26.4554    0.7051   -9.8839 H         1 UNK         0.3000 
    116 H116       27.3612    1.0586  -12.6176 H         1 UNK         0.0850 
    117 H117       27.0201   -1.4123  -12.7305 H         1 UNK         0.0810 
    118 H118       25.6208   -0.5991  -12.0489 H         1 UNK         0.0810 
    119 H119       26.7320   -1.4683  -10.9963 H         1 UNK         0.0810 
    120 H120       28.6978   -0.6980   -9.7710 H         1 UNK         0.3040 
    121 H121       31.2549   -1.1485  -11.1389 H         1 UNK         0.0766 
    122 H122       30.3898   -1.8915   -8.2960 H         1 UNK         0.0812 
    123 H123       31.8033   -2.4749   -9.1563 H         1 UNK         0.0812 
    124 H124       30.2017   -2.9207   -9.7155 H         1 UNK         0.0812 
    125 H125       29.9200    1.1730   -8.9697 H         1 UNK         0.3205 
    126 H126       30.5956    3.0251   -7.9779 H         1 UNK         0.0754 
    127 H127       32.5439    4.2934   -8.7648 H         1 UNK         0.0769 
    128 H128       31.6999    3.6144  -10.1463 H         1 UNK         0.0769 
    129 H129       33.2004    2.8820   -9.5786 H         1 UNK         0.0769 
    130 H130       30.8897    0.5755   -6.6576 H         1 UNK         0.2981 
    131 H131       33.3994    0.6850   -5.1153 H         1 UNK         0.0541 
    132 H132       30.9107    2.7056   -4.7292 H         1 UNK         0.3459 
    133 H133       30.7840    2.6834   -2.9880 H         1 UNK         0.3459 
    134 H134       31.1255   -1.3518   -5.0737 H         1 UNK         0.0612 
    135 H135       32.5936   -1.4673   -4.1292 H         1 UNK         0.0612 
    136 H136       33.8450   -4.1470   -6.5258 H         1 UNK         0.0624 
    137 H137       34.1636   -3.4080   -4.9730 H         1 UNK         0.0624 
@<TRIPOS>BOND
     1    1    2 1    
     2    1   72 1    
     3    1   73 1    
     4    1   74 1    
     5    2    3 2    
     6    2    4 am   BACKBONE|DICT|INTERRES
     7    4    5 1    
     8    4   75 1    
     9    5    6 1    
    10    5   35 1    
    11    5   76 1    
    12    6    7 1    
    13    6   77 1    
    14    6   78 1    
    15    7    8 1    
    16    8    9 1    
    17    8   79 1    
    18    8   80 1    
    19    9   10 ar   
    20    9   14 ar   
    21   10   11 ar   
    22   10   81 1    
    23   11   12 ar   
    24   11   71 1    
    25   12   13 ar   
    26   12   82 1    
    27   13   14 ar   
    28   13   15 1    
    29   14   83 1    
    30   15   16 1    
    31   15   84 1    
    32   15   85 1    
    33   16   17 1    
    34   17   18 1    
    35   17   86 1    
    36   17   87 1    
    37   18   19 1    
    38   18   37 1    
    39   18   88 1    
    40   19   20 am   BACKBONE|DICT|INTERRES
    41   19   89 1    
    42   20   21 2    
    43   20   22 1    
    44   22   23 1    
    45   22   24 1    
    46   22   90 1    
    47   23   91 1    
    48   23   92 1    
    49   23   93 1    
    50   24   25 am   BACKBONE|DICT|INTERRES
    51   24   94 1    
    52   25   26 2    
    53   25   27 1    
    54   27   28 1    
    55   27   29 1    
    56   27   95 1    
    57   28   96 1    
    58   28   97 1    
    59   28   98 1    
    60   29   30 am   BACKBONE|DICT|INTERRES
    61   29   99 1    
    62   30   31 2    
    63   30   32 1    
    64   32   33 1    
    65   32   34 1    
    66   32  100 1    
    67   33  101 1    
    68   33  102 1    
    69   33  103 1    
    70   34   35 am   BACKBONE|DICT|INTERRES
    71   34  104 1    
    72   35   36 2    
    73   37   38 2    
    74   37   39 am   BACKBONE|DICT|INTERRES
    75   39   40 1    
    76   39  105 1    
    77   40   41 1    
    78   40   42 1    
    79   40  106 1    
    80   41  107 1    
    81   41  108 1    
    82   41  109 1    
    83   42   43 2    
    84   42   44 am   BACKBONE|DICT|INTERRES
    85   44   45 1    
    86   44  110 1    
    87   45   46 1    
    88   45   47 1    
    89   45  111 1    
    90   46  112 1    
    91   46  113 1    
    92   46  114 1    
    93   47   48 2    
    94   47   49 am   BACKBONE|DICT|INTERRES
    95   49   50 1    
    96   49  115 1    
    97   50   51 1    
    98   50   52 1    
    99   50  116 1    
   100   51  117 1    
   101   51  118 1    
   102   51  119 1    
   103   52   53 2    
   104   52   54 am   BACKBONE|DICT|INTERRES
   105   54   55 1    
   106   54  120 1    
   107   55   56 1    
   108   55   57 1    
   109   55  121 1    
   110   56  122 1    
   111   56  123 1    
   112   56  124 1    
   113   57   58 2    
   114   57   59 am   BACKBONE|DICT|INTERRES
   115   59   60 1    
   116   59  125 1    
   117   60   61 1    
   118   60   62 1    
   119   60  126 1    
   120   61  127 1    
   121   61  128 1    
   122   61  129 1    
   123   62   63 2    
   124   62   64 am   BACKBONE|DICT|INTERRES
   125   64   65 1    
   126   64  130 1    
   127   65   66 1    
   128   65   69 1    
   129   65  131 1    
   130   66   67 am   BACKBONE|DICT|INTERRES
   131   66   68 2    
   132   67  132 1    
   133   67  133 1    
   134   69   70 1    
   135   69  134 1    
   136   69  135 1    
   137   70   71 1    
   138   71  136 1    
   139   71  137 1    
@<TRIPOS>SUBSTRUCTURE
     1 UNK         1 GROUP             0       ****    0 ROOT    
