@<TRIPOS>MOLECULE
3R137
137   139    1
SMALL
USER_CHARGES


@<TRIPOS>ATOM
      1 CA         23.4765    1.7884   -6.3656 C.3       0 UNK        -0.2020 
      2 C          22.8185    0.5503   -5.7748 C.2       0 UNK         0.4855 
      3 O          21.6204    0.5681   -5.4906 O.2       0 UNK        -0.5197 
      4 N          23.5913   -0.5272   -5.5971 N.am      1 UNK        -0.4892 
      5 CA         23.1646   -1.7738   -4.9562 C.3       1 UNK         0.0835 
      6 C6         24.1030   -2.9513   -5.3319 C.3       12 UNK        -0.0855 
      7 S7         25.8690   -2.6522   -4.9652 S.3       12 UNK        -0.2931 
      8 C8         26.5926   -4.2104   -5.5661 C.3       12 UNK         0.0378 
      9 C9         28.1066   -4.1025   -5.5890 C.ar      12 UNK        -0.0802 
     10 C10        28.7690   -3.7459   -6.7667 C.ar      12 UNK        -0.0944 
     11 C11        30.1512   -3.5383   -6.7818 C.ar      12 UNK        -0.0787 
     12 C12        30.8717   -3.7153   -5.5925 C.ar      12 UNK        -0.0862 
     13 C13        30.2187   -4.0600   -4.4057 C.ar      12 UNK        -0.0733 
     14 C14        28.8401   -4.2883   -4.4156 C.ar      12 UNK        -0.0832 
     15 C15        30.9875   -4.0867   -3.0938 C.3       12 UNK         0.0240 
     16 S16        30.4542   -2.7429   -1.9776 S.3       12 UNK        -0.2522 
     17 C17        30.6214   -1.2462   -3.0214 C.3       12 UNK        -0.0967 
     18 CA         29.2850   -0.8327   -3.7078 C.3       5 UNK         0.0660 
     19 N          28.1572   -0.6846   -2.7787 N.am      5 UNK        -0.4015 
     20 C          28.0319    0.2292   -1.8043 C.2       4 UNK         0.4946 
     21 O          28.8686    1.0995   -1.5603 O.2       4 UNK        -0.5353 
     22 CA         26.7405    0.1827   -0.9680 C.3       4 UNK         0.0277 
     23 CB         25.7774    1.2932   -1.4203 C.3       4 UNK        -0.1981 
     24 N          26.0582   -1.1152   -1.0350 N.am      4 UNK        -0.4209 
     25 C          26.4605   -2.2096   -0.3669 C.2       3 UNK         0.4942 
     26 O          27.4206   -2.2087    0.4051 O.2       3 UNK        -0.5208 
     27 CA         25.6950   -3.5295   -0.6124 C.3       3 UNK         0.0250 
     28 CB         25.7196   -4.4703    0.6116 C.3       3 UNK        -0.1990 
     29 N          24.3258   -3.3460   -1.1078 N.am      3 UNK        -0.4232 
     30 C          23.3042   -2.7295   -0.4919 C.2       2 UNK         0.4993 
     31 O          23.3541   -2.3031    0.6630 O.2       2 UNK        -0.5286 
     32 CA         22.0189   -2.5329   -1.3282 C.3       2 UNK         0.0209 
     33 CB         21.2016   -1.3080   -0.8632 C.3       2 UNK        -0.1931 
     34 N          22.2523   -2.4649   -2.7829 N.am      2 UNK        -0.4546 
     35 C          23.0574   -1.6040   -3.4268 C.2       1 UNK         0.5154 
     36 O          23.7490   -0.7586   -2.8532 O.2       1 UNK        -0.5181 
     37 C          29.4208    0.3777   -4.6567 C.2       5 UNK         0.5014 
     38 O          30.5330    0.7699   -5.0085 O.2       5 UNK        -0.5248 
     39 N          28.2719    0.9415   -5.0552 N.am      6 UNK        -0.4434 
     40 CA         28.1549    2.1275   -5.9072 C.3       6 UNK         0.0363 
     41 CB         27.3632    3.1991   -5.1351 C.3       6 UNK        -0.1936 
     42 C          27.4844    1.8201   -7.2587 C.2       6 UNK         0.5081 
     43 O          27.2180    2.7521   -8.0173 O.2       6 UNK        -0.5248 
     44 N          27.1941    0.5402   -7.5425 N.am      7 UNK        -0.4718 
     45 CA         26.5024    0.1005   -8.7624 C.3       7 UNK         0.0273 
     46 CB         25.9839   -1.3325   -8.5696 C.3       7 UNK        -0.1935 
     47 C          27.3506    0.2007  -10.0449 C.2       7 UNK         0.5018 
     48 O          26.7804    0.2056  -11.1368 O.2       7 UNK        -0.5186 
     49 N          28.6777    0.2852   -9.9014 N.am      8 UNK        -0.4240 
     50 CA         29.6284    0.5312  -10.9796 C.3       8 UNK         0.0235 
     51 CB         30.2426   -0.7978  -11.4527 C.3       8 UNK        -0.2000 
     52 C          30.7090    1.4657  -10.4351 C.2       8 UNK         0.4941 
     53 O          31.1204    1.3007   -9.2843 O.2       8 UNK        -0.5273 
     54 N          31.1781    2.4007  -11.2728 N.am      9 UNK        -0.4262 
     55 CA         32.2045    3.3927  -10.9256 C.3       9 UNK         0.0264 
     56 CB         32.3688    4.3899  -12.0839 C.3       9 UNK        -0.1955 
     57 C          33.5623    2.7737  -10.5502 C.2       9 UNK         0.5031 
     58 O          34.2655    3.3251   -9.7026 O.2       9 UNK        -0.5390 
     59 N          33.8816    1.6170  -11.1487 N.am      10 UNK        -0.4204 
     60 CA         35.0697    0.8103  -10.8567 C.3       10 UNK         0.0237 
     61 CB         35.1491   -0.3493  -11.8633 C.3       10 UNK        -0.1985 
     62 C          35.1223    0.2715   -9.4142 C.2       10 UNK         0.4970 
     63 O          36.2192    0.0069   -8.9202 O.2       10 UNK        -0.4914 
     64 N          33.9577    0.1275   -8.7677 N.am      11 UNK        -0.4285 
     65 CA         33.8319   -0.2651   -7.3575 C.3       11 UNK         0.1007 
     66 C          33.9615    0.9268   -6.3639 C.2       11 UNK         0.5703 
     67 N          34.0674    2.1736   -6.8136 N.am      11 UNK        -0.7361 
     68 O          34.0120    0.7115   -5.1553 O.2       11 UNK        -0.4986 
     69 C69        32.5445   -1.0940   -7.1114 C.3       12 UNK        -0.0947 
     70 S70        32.5682   -2.6676   -8.0378 S.3       12 UNK        -0.2240 
     71 C71        30.7947   -3.0995   -8.1006 C.3       12 UNK         0.0194 
     72 H72        22.9565    2.0939   -7.2731 H         1 UNK         0.0906 
     73 H73        23.4330    2.6121   -5.6535 H         1 UNK         0.0906 
     74 H74        24.5212    1.6139   -6.6185 H         1 UNK         0.0906 
     75 H75        24.5776   -0.4793   -5.8029 H         1 UNK         0.3140 
     76 H76        22.1642   -2.0110   -5.3261 H         1 UNK         0.1085 
     77 H77        24.0103   -3.1515   -6.4007 H         1 UNK         0.0836 
     78 H78        23.7890   -3.8723   -4.8369 H         1 UNK         0.0836 
     79 H79        26.2136   -4.4318   -6.5652 H         1 UNK         0.0731 
     80 H80        26.2807   -5.0341   -4.9222 H         1 UNK         0.0731 
     81 H81        28.2027   -3.6078   -7.6761 H         1 UNK         0.1312 
     82 H82        31.9385   -3.5513   -5.5667 H         1 UNK         0.1406 
     83 H83        28.3299   -4.5324   -3.4935 H         1 UNK         0.1631 
     84 H84        32.0614   -3.9999   -3.2662 H         1 UNK         0.0717 
     85 H85        30.8299   -5.0463   -2.5995 H         1 UNK         0.0717 
     86 H86        30.9887   -0.4334   -2.3929 H         1 UNK         0.0934 
     87 H87        31.4008   -1.4199   -3.7652 H         1 UNK         0.0934 
     88 H88        28.9947   -1.6395   -4.3750 H         1 UNK         0.0739 
     89 H89        27.4110   -1.3559   -2.8900 H         1 UNK         0.3093 
     90 H90        27.0144    0.3757    0.0715 H         1 UNK         0.0818 
     91 H91        25.5125    1.1962   -2.4738 H         1 UNK         0.0819 
     92 H92        24.8542    1.2797   -0.8407 H         1 UNK         0.0819 
     93 H93        26.2291    2.2774   -1.2897 H         1 UNK         0.0819 
     94 H94        25.2360   -1.1624   -1.6322 H         1 UNK         0.3041 
     95 H95        26.2350   -4.0313   -1.4169 H         1 UNK         0.0784 
     96 H96        26.7423   -4.7372    0.8807 H         1 UNK         0.0793 
     97 H97        25.2651   -4.0071    1.4879 H         1 UNK         0.0793 
     98 H98        25.1879   -5.3999    0.4090 H         1 UNK         0.0793 
     99 H99        24.1674   -3.6531   -2.0570 H         1 UNK         0.3024 
    100 H100       21.4115   -3.4221   -1.1506 H         1 UNK         0.1171 
    101 H101       20.2901   -1.1928   -1.4498 H         1 UNK         0.0786 
    102 H102       20.9012   -1.4075    0.1806 H         1 UNK         0.0786 
    103 H103       21.7749   -0.3842   -0.9500 H         1 UNK         0.0786 
    104 H104       21.7435   -3.1451   -3.3321 H         1 UNK         0.2977 
    105 H105       27.4074    0.5554   -4.7042 H         1 UNK         0.3127 
    106 H106       29.1433    2.5321   -6.1355 H         1 UNK         0.0770 
    107 H107       26.3452    2.8735   -4.9181 H         1 UNK         0.0814 
    108 H108       27.2951    4.1266   -5.7052 H         1 UNK         0.0814 
    109 H109       27.8461    3.4399   -4.1877 H         1 UNK         0.0814 
    110 H110       27.4747   -0.1774   -6.8905 H         1 UNK         0.2983 
    111 H111       25.6372    0.7511   -8.9103 H         1 UNK         0.0947 
    112 H112       25.4546   -1.6806   -9.4577 H         1 UNK         0.0806 
    113 H113       25.2846   -1.3957   -7.7382 H         1 UNK         0.0806 
    114 H114       26.7966   -2.0313   -8.3825 H         1 UNK         0.0806 
    115 H115       29.0714    0.3377   -8.9709 H         1 UNK         0.3000 
    116 H116       29.1255    1.0202  -11.8171 H         1 UNK         0.0850 
    117 H117       30.9222   -0.6378  -12.2905 H         1 UNK         0.0810 
    118 H118       29.4727   -1.4927  -11.7885 H         1 UNK         0.0810 
    119 H119       30.8120   -1.2859  -10.6609 H         1 UNK         0.0810 
    120 H120       30.7889    2.4616  -12.2034 H         1 UNK         0.3040 
    121 H121       31.8474    3.9411  -10.0511 H         1 UNK         0.0766 
    122 H122       33.1116    5.1511  -11.8402 H         1 UNK         0.0812 
    123 H123       31.4345    4.9100  -12.2964 H         1 UNK         0.0812 
    124 H124       32.6964    3.8972  -13.0002 H         1 UNK         0.0812 
    125 H125       33.2388    1.2471  -11.8334 H         1 UNK         0.3205 
    126 H126       35.9446    1.4487  -10.9966 H         1 UNK         0.0754 
    127 H127       34.2867   -1.0128  -11.7837 H         1 UNK         0.0769 
    128 H128       36.0413   -0.9537  -11.6928 H         1 UNK         0.0769 
    129 H129       35.2003    0.0164  -12.8891 H         1 UNK         0.0769 
    130 H130       33.0952    0.4107   -9.2158 H         1 UNK         0.2981 
    131 H131       34.6717   -0.9189   -7.1144 H         1 UNK         0.0541 
    132 H132       34.0655    2.3771   -7.8051 H         1 UNK         0.3459 
    133 H133       34.1630    2.9245   -6.1494 H         1 UNK         0.3459 
    134 H134       31.6593   -0.5195   -7.3880 H         1 UNK         0.0612 
    135 H135       32.4369   -1.3270   -6.0516 H         1 UNK         0.0612 
    136 H136       30.6737   -3.9058   -8.8250 H         1 UNK         0.0624 
    137 H137       30.2456   -2.2443   -8.4971 H         1 UNK         0.0624 
@<TRIPOS>BOND
     1    1    2 1    
     2    1   72 1    
     3    1   73 1    
     4    1   74 1    
     5    2    3 2    
     6    2    4 am   BACKBONE|DICT|INTERRES
     7    4    5 1    
     8    4   75 1    
     9    5    6 1    
    10    5   35 1    
    11    5   76 1    
    12    6    7 1    
    13    6   77 1    
    14    6   78 1    
    15    7    8 1    
    16    8    9 1    
    17    8   79 1    
    18    8   80 1    
    19    9   10 ar   
    20    9   14 ar   
    21   10   11 ar   
    22   10   81 1    
    23   11   12 ar   
    24   11   71 1    
    25   12   13 ar   
    26   12   82 1    
    27   13   14 ar   
    28   13   15 1    
    29   14   83 1    
    30   15   16 1    
    31   15   84 1    
    32   15   85 1    
    33   16   17 1    
    34   17   18 1    
    35   17   86 1    
    36   17   87 1    
    37   18   19 1    
    38   18   37 1    
    39   18   88 1    
    40   19   20 am   BACKBONE|DICT|INTERRES
    41   19   89 1    
    42   20   21 2    
    43   20   22 1    
    44   22   23 1    
    45   22   24 1    
    46   22   90 1    
    47   23   91 1    
    48   23   92 1    
    49   23   93 1    
    50   24   25 am   BACKBONE|DICT|INTERRES
    51   24   94 1    
    52   25   26 2    
    53   25   27 1    
    54   27   28 1    
    55   27   29 1    
    56   27   95 1    
    57   28   96 1    
    58   28   97 1    
    59   28   98 1    
    60   29   30 am   BACKBONE|DICT|INTERRES
    61   29   99 1    
    62   30   31 2    
    63   30   32 1    
    64   32   33 1    
    65   32   34 1    
    66   32  100 1    
    67   33  101 1    
    68   33  102 1    
    69   33  103 1    
    70   34   35 am   BACKBONE|DICT|INTERRES
    71   34  104 1    
    72   35   36 2    
    73   37   38 2    
    74   37   39 am   BACKBONE|DICT|INTERRES
    75   39   40 1    
    76   39  105 1    
    77   40   41 1    
    78   40   42 1    
    79   40  106 1    
    80   41  107 1    
    81   41  108 1    
    82   41  109 1    
    83   42   43 2    
    84   42   44 am   BACKBONE|DICT|INTERRES
    85   44   45 1    
    86   44  110 1    
    87   45   46 1    
    88   45   47 1    
    89   45  111 1    
    90   46  112 1    
    91   46  113 1    
    92   46  114 1    
    93   47   48 2    
    94   47   49 am   BACKBONE|DICT|INTERRES
    95   49   50 1    
    96   49  115 1    
    97   50   51 1    
    98   50   52 1    
    99   50  116 1    
   100   51  117 1    
   101   51  118 1    
   102   51  119 1    
   103   52   53 2    
   104   52   54 am   BACKBONE|DICT|INTERRES
   105   54   55 1    
   106   54  120 1    
   107   55   56 1    
   108   55   57 1    
   109   55  121 1    
   110   56  122 1    
   111   56  123 1    
   112   56  124 1    
   113   57   58 2    
   114   57   59 am   BACKBONE|DICT|INTERRES
   115   59   60 1    
   116   59  125 1    
   117   60   61 1    
   118   60   62 1    
   119   60  126 1    
   120   61  127 1    
   121   61  128 1    
   122   61  129 1    
   123   62   63 2    
   124   62   64 am   BACKBONE|DICT|INTERRES
   125   64   65 1    
   126   64  130 1    
   127   65   66 1    
   128   65   69 1    
   129   65  131 1    
   130   66   67 am   BACKBONE|DICT|INTERRES
   131   66   68 2    
   132   67  132 1    
   133   67  133 1    
   134   69   70 1    
   135   69  134 1    
   136   69  135 1    
   137   70   71 1    
   138   71  136 1    
   139   71  137 1    
@<TRIPOS>SUBSTRUCTURE
     1 UNK         1 GROUP             0       ****    0 ROOT    
