@<TRIPOS>MOLECULE
3R137
137   139    1
SMALL
USER_CHARGES


@<TRIPOS>ATOM
      1 CA         26.7312   -6.6551    1.2888 C.3       0 UNK        -0.2020 
      2 C          27.1460   -5.4510    0.4573 C.2       0 UNK         0.4855 
      3 O          27.1928   -5.5446   -0.7700 O.2       0 UNK        -0.5197 
      4 N          27.4369   -4.3189    1.1151 N.am      1 UNK        -0.4892 
      5 CA         27.8572   -3.0286    0.5453 C.3       1 UNK         0.0835 
      6 C6         29.1409   -3.1376   -0.3204 C.3       12 UNK        -0.0855 
      7 S7         30.0386   -1.5591   -0.4997 S.3       12 UNK        -0.2931 
      8 C8         29.4432   -0.9510   -2.1111 C.3       12 UNK         0.0378 
      9 C9         29.9992   -1.7512   -3.2812 C.ar      12 UNK        -0.0802 
     10 C10        31.2480   -1.4289   -3.8197 C.ar      12 UNK        -0.0944 
     11 C11        31.7751   -2.1559   -4.8971 C.ar      12 UNK        -0.0787 
     12 C12        31.0328   -3.2226   -5.4166 C.ar      12 UNK        -0.0862 
     13 C13        29.7824   -3.5569   -4.8883 C.ar      12 UNK        -0.0733 
     14 C14        29.2641   -2.8048   -3.8310 C.ar      12 UNK        -0.0832 
     15 C15        29.0231   -4.7642   -5.4248 C.3       12 UNK         0.0240 
     16 S16        28.0398   -4.3808   -6.9085 S.3       12 UNK        -0.2522 
     17 C17        26.6002   -3.5252   -6.1824 C.3       12 UNK        -0.0967 
     18 CA         26.0838   -2.3430   -7.0364 C.3       5 UNK         0.0660 
     19 N          24.8537   -1.7754   -6.4880 N.am      5 UNK        -0.4015 
     20 C          23.9619   -1.0694   -7.1985 C.2       4 UNK         0.4946 
     21 O          24.0130   -0.9286   -8.4204 O.2       4 UNK        -0.5353 
     22 CA         22.8297   -0.3829   -6.4128 C.3       4 UNK         0.0277 
     23 CB         21.5917   -1.2918   -6.3474 C.3       4 UNK        -0.1981 
     24 N          23.2219    0.0047   -5.0546 N.am      4 UNK        -0.4209 
     25 C          24.1500    0.9287   -4.7637 C.2       3 UNK         0.4942 
     26 O          24.7342    1.6003   -5.6125 O.2       3 UNK        -0.5208 
     27 CA         24.5255    1.0931   -3.2804 C.3       3 UNK         0.0250 
     28 CB         23.6410    2.1595   -2.6158 C.3       3 UNK        -0.1990 
     29 N          24.4469   -0.1579   -2.5174 N.am      3 UNK        -0.4232 
     30 C          25.2032   -1.2402   -2.7476 C.2       2 UNK         0.4993 
     31 O          26.0547   -1.3047   -3.6387 O.2       2 UNK        -0.5286 
     32 CA         24.9045   -2.4820   -1.8921 C.3       2 UNK         0.0209 
     33 CB         24.3716   -3.6243   -2.7730 C.3       2 UNK        -0.1931 
     34 N          26.0738   -2.9571   -1.1522 N.am      2 UNK        -0.4546 
     35 C          26.7001   -2.2951   -0.1710 C.2       1 UNK         0.5154 
     36 O          26.3670   -1.1719    0.2100 O.2       1 UNK        -0.5181 
     37 C          27.1262   -1.2256   -7.2220 C.2       5 UNK         0.5014 
     38 O          27.6558   -1.0870   -8.3240 O.2       5 UNK        -0.5248 
     39 N          27.3520   -0.4160   -6.1741 N.am      6 UNK        -0.4434 
     40 CA         28.3054    0.7039   -6.1521 C.3       6 UNK         0.0363 
     41 CB         28.2478    1.3904   -4.7798 C.3       6 UNK        -0.1936 
     42 C          28.0893    1.7545   -7.2587 C.2       6 UNK         0.5081 
     43 O          29.0545    2.3667   -7.7139 O.2       6 UNK        -0.5248 
     44 N          26.8306    1.9412   -7.6785 N.am      7 UNK        -0.4718 
     45 CA         26.4323    2.8012   -8.7948 C.3       7 UNK         0.0273 
     46 CB         24.8985    2.8988   -8.8248 C.3       7 UNK        -0.1935 
     47 C          26.9665    2.3385  -10.1648 C.2       7 UNK         0.5018 
     48 O          27.1229    3.1772  -11.0535 O.2       7 UNK        -0.5186 
     49 N          27.2283    1.0332  -10.3167 N.am      8 UNK        -0.4240 
     50 CA         27.8033    0.4297  -11.5189 C.3       8 UNK         0.0235 
     51 CB         27.0180   -0.8435  -11.8782 C.3       8 UNK        -0.2000 
     52 C          29.2885    0.1152  -11.2978 C.2       8 UNK         0.4941 
     53 O          30.1286    0.5320  -12.0969 O.2       8 UNK        -0.5273 
     54 N          29.5929   -0.5975  -10.2069 N.am      9 UNK        -0.4262 
     55 CA         30.9387   -0.9537   -9.7714 C.3       9 UNK         0.0264 
     56 CB         30.8647   -2.2561   -8.9527 C.3       9 UNK        -0.1955 
     57 C          31.5379    0.2105   -8.9698 C.2       9 UNK         0.5031 
     58 O          31.6041    0.1489   -7.7417 O.2       9 UNK        -0.5390 
     59 N          31.9443    1.2693   -9.6798 N.am      10 UNK        -0.4204 
     60 CA         32.5030    2.5043   -9.1237 C.3       10 UNK         0.0237 
     61 CB         32.3895    3.6176  -10.1822 C.3       10 UNK        -0.1985 
     62 C          33.9434    2.3242   -8.5987 C.2       10 UNK         0.4970 
     63 O          34.8716    2.9520   -9.1120 O.2       10 UNK        -0.4914 
     64 N          34.1043    1.4613   -7.5895 N.am      11 UNK        -0.4285 
     65 CA         35.3686    1.1847   -6.8893 C.3       11 UNK         0.1007 
     66 C          35.8805    2.3309   -5.9662 C.2       11 UNK         0.5703 
     67 N          35.0860    3.3517   -5.6646 N.am      11 UNK        -0.7361 
     68 O          37.0285    2.2993   -5.5287 O.2       11 UNK        -0.4986 
     69 C69        35.3328   -0.1848   -6.1567 C.3       12 UNK        -0.0947 
     70 S70        33.9742   -0.3366   -4.9430 S.3       12 UNK        -0.2240 
     71 C71        33.1360   -1.8504   -5.5308 C.3       12 UNK         0.0194 
     72 H72        27.4144   -7.4853    1.1116 H         1 UNK         0.0906 
     73 H73        26.7337   -6.4362    2.3564 H         1 UNK         0.0906 
     74 H74        25.7275   -6.9748    1.0102 H         1 UNK         0.0906 
     75 H75        27.3438   -4.3158    2.1224 H         1 UNK         0.3140 
     76 H76        28.1078   -2.4160    1.4135 H         1 UNK         0.1085 
     77 H77        29.8371   -3.8275    0.1589 H         1 UNK         0.0836 
     78 H78        28.9305   -3.5818   -1.2909 H         1 UNK         0.0836 
     79 H79        28.3533   -0.9523   -2.1301 H         1 UNK         0.0731 
     80 H80        29.7440    0.0929   -2.2106 H         1 UNK         0.0731 
     81 H81        31.8004   -0.6095   -3.3838 H         1 UNK         0.1312 
     82 H82        31.4336   -3.8028   -6.2366 H         1 UNK         0.1406 
     83 H83        28.2955   -3.0508   -3.4185 H         1 UNK         0.1631 
     84 H84        29.7334   -5.5530   -5.6765 H         1 UNK         0.0717 
     85 H85        28.3734   -5.1830   -4.6543 H         1 UNK         0.0717 
     86 H86        25.8075   -4.2656   -6.0651 H         1 UNK         0.0934 
     87 H87        26.8415   -3.1900   -5.1763 H         1 UNK         0.0934 
     88 H88        25.8551   -2.7389   -8.0288 H         1 UNK         0.0739 
     89 H89        24.7643   -1.7946   -5.4820 H         1 UNK         0.3093 
     90 H90        22.5607    0.5264   -6.9551 H         1 UNK         0.0818 
     91 H91        20.7533   -0.7874   -5.8666 H         1 UNK         0.0819 
     92 H92        21.2643   -1.5759   -7.3486 H         1 UNK         0.0819 
     93 H93        21.7920   -2.2122   -5.7972 H         1 UNK         0.0819 
     94 H94        22.7761   -0.4832   -4.2915 H         1 UNK         0.3041 
     95 H95        25.5603    1.4369   -3.2387 H         1 UNK         0.0784 
     96 H96        23.7029    3.1068   -3.1538 H         1 UNK         0.0793 
     97 H97        22.5914    1.8632   -2.5976 H         1 UNK         0.0793 
     98 H98        23.9546    2.3519   -1.5895 H         1 UNK         0.0793 
     99 H99        23.7766   -0.1817   -1.7619 H         1 UNK         0.3024 
    100 H100       24.1339   -2.2298   -1.1603 H         1 UNK         0.1171 
    101 H101       24.0691   -4.4801   -2.1690 H         1 UNK         0.0786 
    102 H102       23.4978   -3.3084   -3.3446 H         1 UNK         0.0786 
    103 H103       25.1223   -3.9700   -3.4843 H         1 UNK         0.0786 
    104 H104       26.4018   -3.8986   -1.3510 H         1 UNK         0.2977 
    105 H105       26.8777   -0.6197   -5.2988 H         1 UNK         0.3127 
    106 H106       29.3002    0.2734   -6.2848 H         1 UNK         0.0770 
    107 H107       27.3493    1.9984   -4.6725 H         1 UNK         0.0814 
    108 H108       29.1050    2.0504   -4.6422 H         1 UNK         0.0814 
    109 H109       28.2548    0.6664   -3.9694 H         1 UNK         0.0814 
    110 H110       26.0853    1.4795   -7.1670 H         1 UNK         0.2983 
    111 H111       26.8385    3.7974   -8.6075 H         1 UNK         0.0947 
    112 H112       24.5625    3.5501   -9.6328 H         1 UNK         0.0806 
    113 H113       24.5091    3.3110   -7.8935 H         1 UNK         0.0806 
    114 H114       24.4366    1.9222   -8.9770 H         1 UNK         0.0806 
    115 H115       27.1225    0.4228   -9.5121 H         1 UNK         0.3000 
    116 H116       27.7303    1.1179  -12.3638 H         1 UNK         0.0850 
    117 H117       27.4401   -1.3266  -12.7605 H         1 UNK         0.0810 
    118 H118       25.9765   -0.6124  -12.1021 H         1 UNK         0.0810 
    119 H119       27.0284   -1.5738  -11.0679 H         1 UNK         0.0810 
    120 H120       28.8439   -0.8438   -9.5581 H         1 UNK         0.3040 
    121 H121       31.5720   -1.1370  -10.6421 H         1 UNK         0.0766 
    122 H122       30.4407   -3.0710   -9.5393 H         1 UNK         0.0812 
    123 H123       30.2503   -2.1369   -8.0589 H         1 UNK         0.0812 
    124 H124       31.8573   -2.5700   -8.6295 H         1 UNK         0.0812 
    125 H125       31.8142    1.2387  -10.6834 H         1 UNK         0.3205 
    126 H126       31.8874    2.7995   -8.2709 H         1 UNK         0.0754 
    127 H127       32.7616    4.5667   -9.7939 H         1 UNK         0.0769 
    128 H128       31.3520    3.7761  -10.4784 H         1 UNK         0.0769 
    129 H129       32.9631    3.3831  -11.0799 H         1 UNK         0.0769 
    130 H130       33.2841    0.9569   -7.2612 H         1 UNK         0.2981 
    131 H131       36.1320    1.0943   -7.6643 H         1 UNK         0.0541 
    132 H132       34.1408    3.3809   -6.0098 H         1 UNK         0.3459 
    133 H133       35.4325    4.0891   -5.0717 H         1 UNK         0.3459 
    134 H134       35.2432   -0.9809   -6.8970 H         1 UNK         0.0612 
    135 H135       36.2767   -0.3752   -5.6428 H         1 UNK         0.0612 
    136 H136       33.8004   -2.6981   -5.3588 H         1 UNK         0.0624 
    137 H137       33.0044   -1.7739   -6.6099 H         1 UNK         0.0624 
@<TRIPOS>BOND
     1    1    2 1    
     2    1   72 1    
     3    1   73 1    
     4    1   74 1    
     5    2    3 2    
     6    2    4 am   BACKBONE|DICT|INTERRES
     7    4    5 1    
     8    4   75 1    
     9    5    6 1    
    10    5   35 1    
    11    5   76 1    
    12    6    7 1    
    13    6   77 1    
    14    6   78 1    
    15    7    8 1    
    16    8    9 1    
    17    8   79 1    
    18    8   80 1    
    19    9   10 ar   
    20    9   14 ar   
    21   10   11 ar   
    22   10   81 1    
    23   11   12 ar   
    24   11   71 1    
    25   12   13 ar   
    26   12   82 1    
    27   13   14 ar   
    28   13   15 1    
    29   14   83 1    
    30   15   16 1    
    31   15   84 1    
    32   15   85 1    
    33   16   17 1    
    34   17   18 1    
    35   17   86 1    
    36   17   87 1    
    37   18   19 1    
    38   18   37 1    
    39   18   88 1    
    40   19   20 am   BACKBONE|DICT|INTERRES
    41   19   89 1    
    42   20   21 2    
    43   20   22 1    
    44   22   23 1    
    45   22   24 1    
    46   22   90 1    
    47   23   91 1    
    48   23   92 1    
    49   23   93 1    
    50   24   25 am   BACKBONE|DICT|INTERRES
    51   24   94 1    
    52   25   26 2    
    53   25   27 1    
    54   27   28 1    
    55   27   29 1    
    56   27   95 1    
    57   28   96 1    
    58   28   97 1    
    59   28   98 1    
    60   29   30 am   BACKBONE|DICT|INTERRES
    61   29   99 1    
    62   30   31 2    
    63   30   32 1    
    64   32   33 1    
    65   32   34 1    
    66   32  100 1    
    67   33  101 1    
    68   33  102 1    
    69   33  103 1    
    70   34   35 am   BACKBONE|DICT|INTERRES
    71   34  104 1    
    72   35   36 2    
    73   37   38 2    
    74   37   39 am   BACKBONE|DICT|INTERRES
    75   39   40 1    
    76   39  105 1    
    77   40   41 1    
    78   40   42 1    
    79   40  106 1    
    80   41  107 1    
    81   41  108 1    
    82   41  109 1    
    83   42   43 2    
    84   42   44 am   BACKBONE|DICT|INTERRES
    85   44   45 1    
    86   44  110 1    
    87   45   46 1    
    88   45   47 1    
    89   45  111 1    
    90   46  112 1    
    91   46  113 1    
    92   46  114 1    
    93   47   48 2    
    94   47   49 am   BACKBONE|DICT|INTERRES
    95   49   50 1    
    96   49  115 1    
    97   50   51 1    
    98   50   52 1    
    99   50  116 1    
   100   51  117 1    
   101   51  118 1    
   102   51  119 1    
   103   52   53 2    
   104   52   54 am   BACKBONE|DICT|INTERRES
   105   54   55 1    
   106   54  120 1    
   107   55   56 1    
   108   55   57 1    
   109   55  121 1    
   110   56  122 1    
   111   56  123 1    
   112   56  124 1    
   113   57   58 2    
   114   57   59 am   BACKBONE|DICT|INTERRES
   115   59   60 1    
   116   59  125 1    
   117   60   61 1    
   118   60   62 1    
   119   60  126 1    
   120   61  127 1    
   121   61  128 1    
   122   61  129 1    
   123   62   63 2    
   124   62   64 am   BACKBONE|DICT|INTERRES
   125   64   65 1    
   126   64  130 1    
   127   65   66 1    
   128   65   69 1    
   129   65  131 1    
   130   66   67 am   BACKBONE|DICT|INTERRES
   131   66   68 2    
   132   67  132 1    
   133   67  133 1    
   134   69   70 1    
   135   69  134 1    
   136   69  135 1    
   137   70   71 1    
   138   71  136 1    
   139   71  137 1    
@<TRIPOS>SUBSTRUCTURE
     1 UNK         1 GROUP             0       ****    0 ROOT    
