@<TRIPOS>MOLECULE
3R137
137   139    1
SMALL
USER_CHARGES


@<TRIPOS>ATOM
      1 CA         29.3907   -3.2129   -4.5847 C.3       0 UNK        -0.2020 
      2 C          29.3254   -4.2290   -3.4584 C.2       0 UNK         0.4855 
      3 O          29.3290   -5.4314   -3.7224 O.2       0 UNK        -0.5197 
      4 N          29.2716   -3.7578   -2.2054 N.am      1 UNK        -0.4892 
      5 CA         29.1932   -4.5953   -0.9989 C.3       1 UNK         0.0835 
      6 C6         29.4220   -3.7819    0.2982 C.3       12 UNK        -0.0855 
      7 S7         31.0045   -2.8711    0.2970 S.3       12 UNK        -0.2931 
      8 C8         30.4469   -1.1427    0.4357 C.3       12 UNK         0.0378 
      9 C9         29.9504   -0.5840   -0.8913 C.ar      12 UNK        -0.0802 
     10 C10        30.8570   -0.0135   -1.7892 C.ar      12 UNK        -0.0944 
     11 C11        30.4089    0.5603   -2.9815 C.ar      12 UNK        -0.0787 
     12 C12        29.0438    0.5540   -3.2759 C.ar      12 UNK        -0.0862 
     13 C13        28.1198   -0.0335   -2.3991 C.ar      12 UNK        -0.0733 
     14 C14        28.5870   -0.5933   -1.2048 C.ar      12 UNK        -0.0832 
     15 C15        26.6122   -0.0709   -2.6724 C.3       12 UNK         0.0240 
     16 S16        26.0623    0.6711   -4.2486 S.3       12 UNK        -0.2522 
     17 C17        26.6547   -0.5689   -5.4574 C.3       12 UNK        -0.0967 
     18 CA         25.6660   -0.8455   -6.6243 C.3       5 UNK         0.0660 
     19 N          24.3368   -1.2493   -6.1744 N.am      5 UNK        -0.4015 
     20 C          24.0239   -2.3626   -5.5096 C.2       4 UNK         0.4946 
     21 O          24.8283   -3.2544   -5.2256 O.2       4 UNK        -0.5353 
     22 CA         22.5517   -2.5163   -5.1128 C.3       4 UNK         0.0277 
     23 CB         21.7804   -3.3166   -6.1757 C.3       4 UNK        -0.1981 
     24 N          22.4914   -3.2240   -3.8378 N.am      4 UNK        -0.4209 
     25 C          21.8406   -2.8080   -2.7448 C.2       3 UNK         0.4942 
     26 O          21.1187   -1.8099   -2.7180 O.2       3 UNK        -0.5208 
     27 CA         22.0065   -3.6391   -1.4556 C.3       3 UNK         0.0250 
     28 CB         20.7171   -4.4213   -1.1523 C.3       3 UNK        -0.1990 
     29 N          23.1366   -4.5757   -1.4749 N.am      3 UNK        -0.4232 
     30 C          24.4284   -4.2209   -1.4626 C.2       2 UNK         0.4993 
     31 O          24.8181   -3.0505   -1.4252 O.2       2 UNK        -0.5286 
     32 CA         25.4472   -5.3675   -1.5170 C.3       2 UNK         0.0209 
     33 CB         25.3055   -6.1986   -2.8077 C.3       2 UNK        -0.1931 
     34 N          26.7920   -4.8061   -1.4581 N.am      2 UNK        -0.4546 
     35 C          27.8662   -5.3800   -0.9060 C.2       1 UNK         0.5154 
     36 O          27.8446   -6.4787   -0.3486 O.2       1 UNK        -0.5181 
     37 C          25.4934    0.3751   -7.5475 C.2       5 UNK         0.5014 
     38 O          24.3893    0.9251   -7.6321 O.2       5 UNK        -0.5248 
     39 N          26.5791    0.7799   -8.2131 N.am      6 UNK        -0.4434 
     40 CA         26.6602    1.9852   -9.0345 C.3       6 UNK         0.0363 
     41 CB         27.0334    1.5771  -10.4710 C.3       6 UNK        -0.1936 
     42 C          27.7186    2.9356   -8.4567 C.2       6 UNK         0.5081 
     43 O          28.5684    2.5195   -7.6670 O.2       6 UNK        -0.5248 
     44 N          27.6782    4.1948   -8.9091 N.am      7 UNK        -0.4718 
     45 CA         28.6845    5.2239   -8.6121 C.3       7 UNK         0.0273 
     46 CB         28.0229    6.6081   -8.7309 C.3       7 UNK        -0.1935 
     47 C          29.9316    5.1318   -9.5186 C.2       7 UNK         0.5018 
     48 O          30.8511    5.9378   -9.3657 O.2       7 UNK        -0.5186 
     49 N          29.9268    4.1799  -10.4610 N.am      8 UNK        -0.4240 
     50 CA         31.0061    3.8764  -11.3996 C.3       8 UNK         0.0235 
     51 CB         30.4405    2.9427  -12.4862 C.3       8 UNK        -0.2000 
     52 C          32.2305    3.2365  -10.7181 C.2       8 UNK         0.4941 
     53 O          32.1792    2.8758   -9.5384 O.2       8 UNK        -0.5273 
     54 N          33.3088    3.0770  -11.4992 N.am      9 UNK        -0.4262 
     55 CA         34.5396    2.3821  -11.1106 C.3       9 UNK         0.0264 
     56 CB         35.5369    2.4214  -12.2797 C.3       9 UNK        -0.1955 
     57 C          34.2702    0.9289  -10.6807 C.2       9 UNK         0.5031 
     58 O          33.4375    0.2548  -11.2937 O.2       9 UNK        -0.5390 
     59 N          34.9583    0.4958   -9.6147 N.am      10 UNK        -0.4204 
     60 CA         34.7920   -0.7931   -8.9258 C.3       10 UNK         0.0237 
     61 CB         35.2610   -1.9596   -9.8227 C.3       10 UNK        -0.1985 
     62 C          33.3722   -1.0120   -8.3550 C.2       10 UNK         0.4970 
     63 O          32.9504   -2.1598   -8.2034 O.2       10 UNK        -0.4914 
     64 N          32.6706    0.0899   -8.0486 N.am      11 UNK        -0.4285 
     65 CA         31.2907    0.1403   -7.5362 C.3       11 UNK         0.1007 
     66 C          30.2127   -0.3243   -8.5641 C.2       11 UNK         0.5703 
     67 N          30.5117   -0.3771   -9.8583 N.am      11 UNK        -0.7361 
     68 O          29.0804   -0.6277   -8.1909 O.2       11 UNK        -0.4986 
     69 C69        31.1241   -0.5383   -6.1451 C.3       12 UNK        -0.0947 
     70 S70        32.3435    0.0102   -4.9004 S.3       12 UNK        -0.2240 
     71 C71        31.3950    1.2238   -3.9334 C.3       12 UNK         0.0194 
     72 H72        30.2497   -3.4266   -5.2189 H         1 UNK         0.0906 
     73 H73        28.4927   -3.2735   -5.1985 H         1 UNK         0.0906 
     74 H74        29.4859   -2.1950   -4.2086 H         1 UNK         0.0906 
     75 H75        29.3312   -2.7616   -2.0410 H         1 UNK         0.3140 
     76 H76        29.9900   -5.3391   -1.0718 H         1 UNK         0.1085 
     77 H77        28.5950   -3.0919    0.4715 H         1 UNK         0.0836 
     78 H78        29.4340   -4.4505    1.1615 H         1 UNK         0.0836 
     79 H79        31.2830   -0.5383    0.7912 H         1 UNK         0.0731 
     80 H80        29.6755   -1.0605    1.2031 H         1 UNK         0.0731 
     81 H81        31.9125   -0.0001   -1.5528 H         1 UNK         0.1312 
     82 H82        28.7171    1.0225   -4.1920 H         1 UNK         0.1406 
     83 H83        27.8792   -1.0218   -0.5075 H         1 UNK         0.1631 
     84 H84        26.1034    0.4548   -1.8633 H         1 UNK         0.0717 
     85 H85        26.2633   -1.1036   -2.6320 H         1 UNK         0.0717 
     86 H86        27.6225   -0.2474   -5.8442 H         1 UNK         0.0934 
     87 H87        26.8552   -1.5029   -4.9324 H         1 UNK         0.0934 
     88 H88        26.0672   -1.6551   -7.2377 H         1 UNK         0.0739 
     89 H89        23.6232   -0.5698   -6.4116 H         1 UNK         0.3093 
     90 H90        22.1088   -1.5219   -5.0209 H         1 UNK         0.0818 
     91 H91        21.8051   -2.8104   -7.1416 H         1 UNK         0.0819 
     92 H92        22.2031   -4.3124   -6.3170 H         1 UNK         0.0819 
     93 H93        20.7328   -3.4343   -5.8980 H         1 UNK         0.0819 
     94 H94        23.1290   -4.0039   -3.7552 H         1 UNK         0.3041 
     95 H95        22.1746   -2.9312   -0.6410 H         1 UNK         0.0784 
     96 H96        19.8581   -3.7514   -1.0909 H         1 UNK         0.0793 
     97 H97        20.5001   -5.1579   -1.9270 H         1 UNK         0.0793 
     98 H98        20.7840   -4.9445   -0.1982 H         1 UNK         0.0793 
     99 H99        22.9022   -5.5579   -1.5047 H         1 UNK         0.3024 
    100 H100       25.2778   -6.0050   -0.6460 H         1 UNK         0.1171 
    101 H101       24.3294   -6.6800   -2.8730 H         1 UNK         0.0786 
    102 H102       25.4287   -5.5800   -3.6980 H         1 UNK         0.0786 
    103 H103       26.0537   -6.9905   -2.8508 H         1 UNK         0.0786 
    104 H104       26.8728   -3.8707   -1.8351 H         1 UNK         0.2977 
    105 H105       27.4673    0.3009   -8.0674 H         1 UNK         0.3127 
    106 H106       25.7030    2.5108   -9.0506 H         1 UNK         0.0770 
    107 H107       28.0132    1.1002  -10.5137 H         1 UNK         0.0814 
    108 H108       27.0582    2.4403  -11.1369 H         1 UNK         0.0814 
    109 H109       26.3057    0.8773  -10.8823 H         1 UNK         0.0814 
    110 H110       26.9446    4.4588   -9.5527 H         1 UNK         0.2983 
    111 H111       29.0288    5.0977   -7.5830 H         1 UNK         0.0947 
    112 H112       28.7232    7.4017   -8.4662 H         1 UNK         0.0806 
    113 H113       27.1683    6.6987   -8.0600 H         1 UNK         0.0806 
    114 H114       27.6768    6.8051   -9.7463 H         1 UNK         0.0806 
    115 H115       29.1373    3.5542  -10.4724 H         1 UNK         0.3000 
    116 H116       31.3263    4.8121  -11.8629 H         1 UNK         0.0850 
    117 H117       31.1769    2.7423  -13.2652 H         1 UNK         0.0810 
    118 H118       29.5719    3.3827  -12.9767 H         1 UNK         0.0810 
    119 H119       30.1394    1.9797  -12.0707 H         1 UNK         0.0810 
    120 H120       33.2527    3.3767  -12.4615 H         1 UNK         0.3040 
    121 H121       34.9682    2.9279  -10.2675 H         1 UNK         0.0766 
    122 H122       35.7770    3.4459  -12.5650 H         1 UNK         0.0812 
    123 H123       35.1459    1.9090  -13.1599 H         1 UNK         0.0812 
    124 H124       36.4749    1.9339  -12.0102 H         1 UNK         0.0812 
    125 H125       35.6188    1.1310   -9.1865 H         1 UNK         0.3205 
    126 H126       35.4549   -0.7605   -8.0598 H         1 UNK         0.0754 
    127 H127       35.2839   -2.8977   -9.2667 H         1 UNK         0.0769 
    128 H128       36.2674   -1.7874  -10.2041 H         1 UNK         0.0769 
    129 H129       34.5989   -2.1054  -10.6768 H         1 UNK         0.0769 
    130 H130       33.0735    0.9924   -8.2579 H         1 UNK         0.2981 
    131 H131       31.0836    1.2013   -7.3938 H         1 UNK         0.0541 
    132 H132       29.8144   -0.6927  -10.5117 H         1 UNK         0.3459 
    133 H133       31.4378   -0.1328  -10.1827 H         1 UNK         0.3459 
    134 H134       31.2247   -1.6180   -6.2479 H         1 UNK         0.0612 
    135 H135       30.1205   -0.3644   -5.7579 H         1 UNK         0.0612 
    136 H136       30.8849    1.9083   -4.6133 H         1 UNK         0.0624 
    137 H137       32.0937    1.8321   -3.3574 H         1 UNK         0.0624 
@<TRIPOS>BOND
     1    1    2 1    
     2    1   72 1    
     3    1   73 1    
     4    1   74 1    
     5    2    3 2    
     6    2    4 am   BACKBONE|DICT|INTERRES
     7    4    5 1    
     8    4   75 1    
     9    5    6 1    
    10    5   35 1    
    11    5   76 1    
    12    6    7 1    
    13    6   77 1    
    14    6   78 1    
    15    7    8 1    
    16    8    9 1    
    17    8   79 1    
    18    8   80 1    
    19    9   10 ar   
    20    9   14 ar   
    21   10   11 ar   
    22   10   81 1    
    23   11   12 ar   
    24   11   71 1    
    25   12   13 ar   
    26   12   82 1    
    27   13   14 ar   
    28   13   15 1    
    29   14   83 1    
    30   15   16 1    
    31   15   84 1    
    32   15   85 1    
    33   16   17 1    
    34   17   18 1    
    35   17   86 1    
    36   17   87 1    
    37   18   19 1    
    38   18   37 1    
    39   18   88 1    
    40   19   20 am   BACKBONE|DICT|INTERRES
    41   19   89 1    
    42   20   21 2    
    43   20   22 1    
    44   22   23 1    
    45   22   24 1    
    46   22   90 1    
    47   23   91 1    
    48   23   92 1    
    49   23   93 1    
    50   24   25 am   BACKBONE|DICT|INTERRES
    51   24   94 1    
    52   25   26 2    
    53   25   27 1    
    54   27   28 1    
    55   27   29 1    
    56   27   95 1    
    57   28   96 1    
    58   28   97 1    
    59   28   98 1    
    60   29   30 am   BACKBONE|DICT|INTERRES
    61   29   99 1    
    62   30   31 2    
    63   30   32 1    
    64   32   33 1    
    65   32   34 1    
    66   32  100 1    
    67   33  101 1    
    68   33  102 1    
    69   33  103 1    
    70   34   35 am   BACKBONE|DICT|INTERRES
    71   34  104 1    
    72   35   36 2    
    73   37   38 2    
    74   37   39 am   BACKBONE|DICT|INTERRES
    75   39   40 1    
    76   39  105 1    
    77   40   41 1    
    78   40   42 1    
    79   40  106 1    
    80   41  107 1    
    81   41  108 1    
    82   41  109 1    
    83   42   43 2    
    84   42   44 am   BACKBONE|DICT|INTERRES
    85   44   45 1    
    86   44  110 1    
    87   45   46 1    
    88   45   47 1    
    89   45  111 1    
    90   46  112 1    
    91   46  113 1    
    92   46  114 1    
    93   47   48 2    
    94   47   49 am   BACKBONE|DICT|INTERRES
    95   49   50 1    
    96   49  115 1    
    97   50   51 1    
    98   50   52 1    
    99   50  116 1    
   100   51  117 1    
   101   51  118 1    
   102   51  119 1    
   103   52   53 2    
   104   52   54 am   BACKBONE|DICT|INTERRES
   105   54   55 1    
   106   54  120 1    
   107   55   56 1    
   108   55   57 1    
   109   55  121 1    
   110   56  122 1    
   111   56  123 1    
   112   56  124 1    
   113   57   58 2    
   114   57   59 am   BACKBONE|DICT|INTERRES
   115   59   60 1    
   116   59  125 1    
   117   60   61 1    
   118   60   62 1    
   119   60  126 1    
   120   61  127 1    
   121   61  128 1    
   122   61  129 1    
   123   62   63 2    
   124   62   64 am   BACKBONE|DICT|INTERRES
   125   64   65 1    
   126   64  130 1    
   127   65   66 1    
   128   65   69 1    
   129   65  131 1    
   130   66   67 am   BACKBONE|DICT|INTERRES
   131   66   68 2    
   132   67  132 1    
   133   67  133 1    
   134   69   70 1    
   135   69  134 1    
   136   69  135 1    
   137   70   71 1    
   138   71  136 1    
   139   71  137 1    
@<TRIPOS>SUBSTRUCTURE
     1 UNK         1 GROUP             0       ****    0 ROOT    
