@<TRIPOS>MOLECULE
3R137
137   139    1
SMALL
USER_CHARGES


@<TRIPOS>ATOM
      1 CA         25.2334   -3.8388   -3.1238 C.3       0 UNK        -0.2020 
      2 C          26.2953   -2.8560   -2.6570 C.2       0 UNK         0.4855 
      3 O          26.7239   -2.0127   -3.4450 O.2       0 UNK        -0.5197 
      4 N          26.6988   -2.9618   -1.3813 N.am      1 UNK        -0.4892 
      5 CA         27.8041   -2.2377   -0.7243 C.3       1 UNK         0.0835 
      6 C6         29.1991   -2.7069   -1.2114 C.3       12 UNK        -0.0855 
      7 S7         29.4735   -4.4656   -0.8209 S.3       12 UNK        -0.2931 
      8 C8         31.1158   -4.7256   -1.5609 C.3       12 UNK         0.0378 
      9 C9         31.1128   -4.6019   -3.0803 C.ar      12 UNK        -0.0802 
     10 C10        32.0766   -3.8148   -3.7176 C.ar      12 UNK        -0.0944 
     11 C11        32.1312   -3.7526   -5.1122 C.ar      12 UNK        -0.0787 
     12 C12        31.1974   -4.4667   -5.8716 C.ar      12 UNK        -0.0862 
     13 C13        30.2161   -5.2458   -5.2475 C.ar      12 UNK        -0.0733 
     14 C14        30.1861   -5.3122   -3.8517 C.ar      12 UNK        -0.0832 
     15 C15        29.2374   -6.0843   -6.0649 C.3       12 UNK         0.0240 
     16 S16        28.3983   -5.1604   -7.3921 S.3       12 UNK        -0.2522 
     17 C17        27.1922   -4.1517   -6.4669 C.3       12 UNK        -0.0967 
     18 CA         26.8104   -2.8771   -7.2632 C.3       5 UNK         0.0660 
     19 N          25.4734   -2.3678   -6.9372 N.am      5 UNK        -0.4015 
     20 C          24.8395   -1.4297   -7.6580 C.2       4 UNK         0.4946 
     21 O          25.3170   -0.8899   -8.6550 O.2       4 UNK        -0.5353 
     22 CA         23.4373   -1.0005   -7.1985 C.3       4 UNK         0.0277 
     23 CB         22.3813   -2.0002   -7.6980 C.3       4 UNK        -0.1981 
     24 N          23.2695   -0.7920   -5.7571 N.am      4 UNK        -0.4209 
     25 C          24.0492   -0.0468   -4.9615 C.2       3 UNK         0.4942 
     26 O          25.1254    0.4428   -5.3092 O.2       3 UNK        -0.5208 
     27 CA         23.5227    0.2277   -3.5456 C.3       3 UNK         0.0250 
     28 CB         22.5564   -0.8466   -2.9998 C.3       3 UNK        -0.1990 
     29 N          24.6546    0.3840   -2.6407 N.am      3 UNK        -0.4232 
     30 C          24.6958    1.2044   -1.5844 C.2       2 UNK         0.4993 
     31 O          23.7670    1.9434   -1.2526 O.2       2 UNK        -0.5286 
     32 CA         25.9755    1.1465   -0.7378 C.3       2 UNK         0.0209 
     33 CB         25.8097    1.7692    0.6621 C.3       2 UNK        -0.1931 
     34 N          26.3908   -0.2491   -0.6100 N.am      2 UNK        -0.4546 
     35 C          27.6391   -0.7022   -0.7538 C.2       1 UNK         0.5154 
     36 O          28.6165    0.0337   -0.9002 O.2       1 UNK        -0.5181 
     37 C          27.8781   -1.7751   -7.1462 C.2       5 UNK         0.5014 
     38 O          28.5641   -1.4884   -8.1304 O.2       5 UNK        -0.5248 
     39 N          27.9568   -1.1423   -5.9661 N.am      6 UNK        -0.4434 
     40 CA         28.8774   -0.0405   -5.6972 C.3       6 UNK         0.0363 
     41 CB         28.8409    0.3277   -4.2086 C.3       6 UNK        -0.1936 
     42 C          28.6173    1.1948   -6.5675 C.2       6 UNK         0.5081 
     43 O          29.5805    1.8282   -6.9950 O.2       6 UNK        -0.5248 
     44 N          27.3405    1.4988   -6.8375 N.am      7 UNK        -0.4718 
     45 CA         26.9199    2.5872   -7.7201 C.3       7 UNK         0.0273 
     46 CB         25.3998    2.7861   -7.6114 C.3       7 UNK        -0.1935 
     47 C          27.3392    2.3685   -9.1831 C.2       7 UNK         0.5018 
     48 O          27.8526    3.3006   -9.8027 O.2       7 UNK        -0.5186 
     49 N          27.1230    1.1530   -9.7077 N.am      8 UNK        -0.4240 
     50 CA         27.4599    0.7848  -11.0846 C.3       8 UNK         0.0235 
     51 CB         26.7602   -0.5302  -11.4644 C.3       8 UNK        -0.2000 
     52 C          28.9726    0.6758  -11.3220 C.2       8 UNK         0.4941 
     53 O          29.4638    1.2048  -12.3201 O.2       8 UNK        -0.5273 
     54 N          29.6815   -0.0119  -10.4165 N.am      9 UNK        -0.4262 
     55 CA         31.1199   -0.2687  -10.5350 C.3       9 UNK         0.0264 
     56 CB         31.4403   -1.6174   -9.8721 C.3       9 UNK        -0.1955 
     57 C          32.0081    0.8660   -9.9871 C.2       9 UNK         0.5031 
     58 O          33.2205    0.8158  -10.2011 O.2       9 UNK        -0.5390 
     59 N          31.4091    1.8611   -9.3131 N.am      10 UNK        -0.4204 
     60 CA         32.0458    3.0221   -8.6729 C.3       10 UNK         0.0237 
     61 CB         32.6953    3.9502   -9.7223 C.3       10 UNK        -0.1985 
     62 C          33.0077    2.6094   -7.5407 C.2       10 UNK         0.4970 
     63 O          34.1442    3.0845   -7.4843 O.2       10 UNK        -0.4914 
     64 N          32.5335    1.7068   -6.6753 N.am      11 UNK        -0.4285 
     65 CA         33.2932    1.1342   -5.5533 C.3       11 UNK         0.1007 
     66 C          33.4047    2.1164   -4.3574 C.2       11 UNK         0.5703 
     67 N          34.4686    2.0158   -3.5720 N.am      11 UNK        -0.7361 
     68 O          32.5255    2.9409   -4.1124 O.2       11 UNK        -0.4986 
     69 C69        32.7183   -0.2354   -5.1022 C.3       12 UNK        -0.0947 
     70 S70        32.6111   -1.4047   -6.4986 S.3       12 UNK        -0.2240 
     71 C71        33.2322   -2.9619   -5.8031 C.3       12 UNK         0.0194 
     72 H72        24.5939   -3.3828   -3.8778 H         1 UNK         0.0906 
     73 H73        25.7063   -4.7155   -3.5653 H         1 UNK         0.0906 
     74 H74        24.6009   -4.1676   -2.2995 H         1 UNK         0.0906 
     75 H75        26.2779   -3.6795   -0.8071 H         1 UNK         0.3140 
     76 H76        27.7363   -2.4912    0.3353 H         1 UNK         0.1085 
     77 H77        29.3025   -2.5509   -2.2866 H         1 UNK         0.0836 
     78 H78        29.9980   -2.1359   -0.7343 H         1 UNK         0.0836 
     79 H79        31.4664   -5.7233   -1.2938 H         1 UNK         0.0731 
     80 H80        31.8188   -4.0218   -1.1123 H         1 UNK         0.0731 
     81 H81        32.8052   -3.2734   -3.1298 H         1 UNK         0.1312 
     82 H82        31.2452   -4.4270   -6.9514 H         1 UNK         0.1406 
     83 H83        29.4509   -5.9338   -3.3584 H         1 UNK         0.1631 
     84 H84        28.4803   -6.5397   -5.4243 H         1 UNK         0.0717 
     85 H85        29.7903   -6.9087   -6.5169 H         1 UNK         0.0717 
     86 H86        26.3122   -4.7759   -6.3048 H         1 UNK         0.0934 
     87 H87        27.5807   -3.9105   -5.4750 H         1 UNK         0.0934 
     88 H88        26.7614   -3.1519   -8.3200 H         1 UNK         0.0739 
     89 H89        25.0236   -2.7338   -6.1129 H         1 UNK         0.3093 
     90 H90        23.2335   -0.0388   -7.6735 H         1 UNK         0.0818 
     91 H91        21.3702   -1.6353   -7.5167 H         1 UNK         0.0819 
     92 H92        22.4744   -2.1625   -8.7731 H         1 UNK         0.0819 
     93 H93        22.4805   -2.9717   -7.2123 H         1 UNK         0.0819 
     94 H94        22.4142   -1.1522   -5.3593 H         1 UNK         0.3041 
     95 H95        22.9842    1.1758   -3.6078 H         1 UNK         0.0784 
     96 H96        21.6426   -0.9064   -3.5917 H         1 UNK         0.0793 
     97 H97        23.0126   -1.8356   -2.9839 H         1 UNK         0.0793 
     98 H98        22.2485   -0.6129   -1.9803 H         1 UNK         0.0793 
     99 H99        25.4838   -0.1425   -2.8940 H         1 UNK         0.3024 
    100 H100       26.7311    1.7164   -1.2842 H         1 UNK         0.1171 
    101 H101       26.7391    1.7185    1.2295 H         1 UNK         0.0786 
    102 H102       25.5312    2.8216    0.5931 H         1 UNK         0.0786 
    103 H103       25.0360    1.2614    1.2392 H         1 UNK         0.0786 
    104 H104       25.6468   -0.9269   -0.5116 H         1 UNK         0.2977 
    105 H105       27.3557   -1.4269   -5.1964 H         1 UNK         0.3127 
    106 H106       29.8764   -0.4002   -5.9412 H         1 UNK         0.0770 
    107 H107       27.8405    0.6243   -3.8908 H         1 UNK         0.0814 
    108 H108       29.5151    1.1571   -3.9904 H         1 UNK         0.0814 
    109 H109       29.1537   -0.5130   -3.5908 H         1 UNK         0.0814 
    110 H110       26.6036    0.9512   -6.3975 H         1 UNK         0.2983 
    111 H111       27.4070    3.5007   -7.3719 H         1 UNK         0.0947 
    112 H112       25.0661    3.6078   -8.2464 H         1 UNK         0.0806 
    113 H113       25.1041    3.0241   -6.5895 H         1 UNK         0.0806 
    114 H114       24.8537    1.8932   -7.9168 H         1 UNK         0.0806 
    115 H115       26.6635    0.4409   -9.1448 H         1 UNK         0.3000 
    116 H116       27.0785    1.5680  -11.7435 H         1 UNK         0.0850 
    117 H117       26.9975   -0.8197  -12.4889 H         1 UNK         0.0810 
    118 H118       25.6763   -0.4345  -11.3974 H         1 UNK         0.0810 
    119 H119       27.0628   -1.3512  -10.8126 H         1 UNK         0.0810 
    120 H120       29.2037   -0.4377   -9.6234 H         1 UNK         0.3040 
    121 H121       31.3738   -0.3664  -11.5928 H         1 UNK         0.0766 
    122 H122       31.0856   -1.6502   -8.8439 H         1 UNK         0.0812 
    123 H123       32.5133   -1.8132   -9.8584 H         1 UNK         0.0812 
    124 H124       30.9668   -2.4404  -10.4073 H         1 UNK         0.0812 
    125 H125       30.4159    1.7731   -9.1381 H         1 UNK         0.3205 
    126 H126       31.2424    3.5864   -8.1973 H         1 UNK         0.0754 
    127 H127       33.0586    4.8679   -9.2583 H         1 UNK         0.0769 
    128 H128       31.9794    4.2381  -10.4923 H         1 UNK         0.0769 
    129 H129       33.5457    3.4775  -10.2145 H         1 UNK         0.0769 
    130 H130       31.5600    1.4363   -6.7542 H         1 UNK         0.2981 
    131 H131       34.3078    0.9538   -5.9150 H         1 UNK         0.0541 
    132 H132       35.1921    1.3384   -3.7561 H         1 UNK         0.3459 
    133 H133       34.5533    2.6360   -2.7819 H         1 UNK         0.3459 
    134 H134       31.7296   -0.1185   -4.6592 H         1 UNK         0.0612 
    135 H135       33.3472   -0.6685   -4.3228 H         1 UNK         0.0612 
    136 H136       33.6408   -3.5620   -6.6174 H         1 UNK         0.0624 
    137 H137       34.0655   -2.7658   -5.1270 H         1 UNK         0.0624 
@<TRIPOS>BOND
     1    1    2 1    
     2    1   72 1    
     3    1   73 1    
     4    1   74 1    
     5    2    3 2    
     6    2    4 am   BACKBONE|DICT|INTERRES
     7    4    5 1    
     8    4   75 1    
     9    5    6 1    
    10    5   35 1    
    11    5   76 1    
    12    6    7 1    
    13    6   77 1    
    14    6   78 1    
    15    7    8 1    
    16    8    9 1    
    17    8   79 1    
    18    8   80 1    
    19    9   10 ar   
    20    9   14 ar   
    21   10   11 ar   
    22   10   81 1    
    23   11   12 ar   
    24   11   71 1    
    25   12   13 ar   
    26   12   82 1    
    27   13   14 ar   
    28   13   15 1    
    29   14   83 1    
    30   15   16 1    
    31   15   84 1    
    32   15   85 1    
    33   16   17 1    
    34   17   18 1    
    35   17   86 1    
    36   17   87 1    
    37   18   19 1    
    38   18   37 1    
    39   18   88 1    
    40   19   20 am   BACKBONE|DICT|INTERRES
    41   19   89 1    
    42   20   21 2    
    43   20   22 1    
    44   22   23 1    
    45   22   24 1    
    46   22   90 1    
    47   23   91 1    
    48   23   92 1    
    49   23   93 1    
    50   24   25 am   BACKBONE|DICT|INTERRES
    51   24   94 1    
    52   25   26 2    
    53   25   27 1    
    54   27   28 1    
    55   27   29 1    
    56   27   95 1    
    57   28   96 1    
    58   28   97 1    
    59   28   98 1    
    60   29   30 am   BACKBONE|DICT|INTERRES
    61   29   99 1    
    62   30   31 2    
    63   30   32 1    
    64   32   33 1    
    65   32   34 1    
    66   32  100 1    
    67   33  101 1    
    68   33  102 1    
    69   33  103 1    
    70   34   35 am   BACKBONE|DICT|INTERRES
    71   34  104 1    
    72   35   36 2    
    73   37   38 2    
    74   37   39 am   BACKBONE|DICT|INTERRES
    75   39   40 1    
    76   39  105 1    
    77   40   41 1    
    78   40   42 1    
    79   40  106 1    
    80   41  107 1    
    81   41  108 1    
    82   41  109 1    
    83   42   43 2    
    84   42   44 am   BACKBONE|DICT|INTERRES
    85   44   45 1    
    86   44  110 1    
    87   45   46 1    
    88   45   47 1    
    89   45  111 1    
    90   46  112 1    
    91   46  113 1    
    92   46  114 1    
    93   47   48 2    
    94   47   49 am   BACKBONE|DICT|INTERRES
    95   49   50 1    
    96   49  115 1    
    97   50   51 1    
    98   50   52 1    
    99   50  116 1    
   100   51  117 1    
   101   51  118 1    
   102   51  119 1    
   103   52   53 2    
   104   52   54 am   BACKBONE|DICT|INTERRES
   105   54   55 1    
   106   54  120 1    
   107   55   56 1    
   108   55   57 1    
   109   55  121 1    
   110   56  122 1    
   111   56  123 1    
   112   56  124 1    
   113   57   58 2    
   114   57   59 am   BACKBONE|DICT|INTERRES
   115   59   60 1    
   116   59  125 1    
   117   60   61 1    
   118   60   62 1    
   119   60  126 1    
   120   61  127 1    
   121   61  128 1    
   122   61  129 1    
   123   62   63 2    
   124   62   64 am   BACKBONE|DICT|INTERRES
   125   64   65 1    
   126   64  130 1    
   127   65   66 1    
   128   65   69 1    
   129   65  131 1    
   130   66   67 am   BACKBONE|DICT|INTERRES
   131   66   68 2    
   132   67  132 1    
   133   67  133 1    
   134   69   70 1    
   135   69  134 1    
   136   69  135 1    
   137   70   71 1    
   138   71  136 1    
   139   71  137 1    
@<TRIPOS>SUBSTRUCTURE
     1 UNK         1 GROUP             0       ****    0 ROOT    
