@<TRIPOS>MOLECULE
3R137
137   139    1
SMALL
USER_CHARGES


@<TRIPOS>ATOM
      1 CA         31.3238   -6.5234   -4.8170 C.3       0 UNK        -0.2020 
      2 C          29.9313   -6.4405   -4.2141 C.2       0 UNK         0.4855 
      3 O          29.3577   -7.4676   -3.8507 O.2       0 UNK        -0.5197 
      4 N          29.3869   -5.2234   -4.0999 N.am      1 UNK        -0.4892 
      5 CA         28.0643   -4.9593   -3.5162 C.3       1 UNK         0.0835 
      6 C6         27.9930   -3.5412   -2.8965 C.3       12 UNK        -0.0855 
      7 S7         28.9312   -3.4555   -1.3342 S.3       12 UNK        -0.2931 
      8 C8         30.5501   -2.7970   -1.8661 C.3       12 UNK         0.0378 
      9 C9         30.6030   -1.2779   -2.0120 C.ar      12 UNK        -0.0802 
     10 C10        31.3736   -0.7129   -3.0329 C.ar      12 UNK        -0.0944 
     11 C11        31.4942    0.6751   -3.1531 C.ar      12 UNK        -0.0787 
     12 C12        30.8349    1.5065   -2.2440 C.ar      12 UNK        -0.0862 
     13 C13        30.0621    0.9565   -1.2169 C.ar      12 UNK        -0.0733 
     14 C14        29.9541   -0.4330   -1.1036 C.ar      12 UNK        -0.0832 
     15 C15        29.3637    1.8559   -0.2081 C.3       12 UNK         0.0240 
     16 S16        27.6196    2.1353   -0.6460 S.3       12 UNK        -0.2522 
     17 C17        27.7637    3.3237   -2.0237 C.3       12 UNK        -0.0967 
     18 CA         27.4766    2.6831   -3.4047 C.3       5 UNK         0.0660 
     19 N          26.1419    2.0778   -3.4572 N.am      5 UNK        -0.4015 
     20 C          25.5626    1.5100   -4.5227 C.2       4 UNK         0.4946 
     21 O          26.0691    1.4601   -5.6491 O.2       4 UNK        -0.5353 
     22 CA         24.1613    0.9191   -4.2836 C.3       4 UNK         0.0277 
     23 CB         23.0875    2.0119   -4.4137 C.3       4 UNK        -0.1981 
     24 N          23.8604   -0.1593   -5.2262 N.am      4 UNK        -0.4209 
     25 C          24.4868   -1.3423   -5.2483 C.2       3 UNK         0.4942 
     26 O          25.2857   -1.7150   -4.3838 O.2       3 UNK        -0.5208 
     27 CA         24.1940   -2.2495   -6.4524 C.3       3 UNK         0.0250 
     28 CB         24.1779   -1.4644   -7.7830 C.3       3 UNK        -0.1990 
     29 N          25.2174   -3.2900   -6.4751 N.am      3 UNK        -0.4232 
     30 C          25.1671   -4.4534   -7.1313 C.2       2 UNK         0.4993 
     31 O          24.2322   -4.7820   -7.8625 O.2       2 UNK        -0.5286 
     32 CA         26.3613   -5.4174   -6.9686 C.3       2 UNK         0.0209 
     33 CB         27.2040   -5.4392   -8.2562 C.3       2 UNK        -0.1931 
     34 N          27.2554   -5.1403   -5.8364 N.am      2 UNK        -0.4546 
     35 C          26.9303   -5.1968   -4.5360 C.2       1 UNK         0.5154 
     36 O          25.7946   -5.4455   -4.1310 O.2       1 UNK        -0.5181 
     37 C          27.6744    3.7235   -4.5247 C.2       5 UNK         0.5014 
     38 O          26.9625    4.7296   -4.5486 O.2       5 UNK        -0.5248 
     39 N          28.6171    3.4379   -5.4329 N.am      6 UNK        -0.4434 
     40 CA         28.9879    4.2185   -6.6194 C.3       6 UNK         0.0363 
     41 CB         29.5092    5.6172   -6.2271 C.3       6 UNK        -0.1936 
     42 C          27.9185    4.2870   -7.7316 C.2       6 UNK         0.5081 
     43 O          28.1647    4.9561   -8.7363 O.2       6 UNK        -0.5248 
     44 N          26.7834    3.5827   -7.5900 N.am      7 UNK        -0.4718 
     45 CA         25.8073    3.3957   -8.6723 C.3       7 UNK         0.0273 
     46 CB         24.4358    3.0129   -8.0931 C.3       7 UNK        -0.1935 
     47 C          26.3023    2.3313   -9.6648 C.2       7 UNK         0.5018 
     48 O          26.1683    2.5093  -10.8757 O.2       7 UNK        -0.5186 
     49 N          26.9144    1.2759   -9.1177 N.am      8 UNK        -0.4240 
     50 CA         27.7112    0.2797   -9.8210 C.3       8 UNK         0.0235 
     51 CB         26.8346   -0.7428  -10.5741 C.3       8 UNK        -0.2000 
     52 C          28.6232   -0.3466   -8.7676 C.2       8 UNK         0.4941 
     53 O          29.7914    0.0304   -8.6789 O.2       8 UNK        -0.5273 
     54 N          28.0563   -1.2569   -7.9589 N.am      9 UNK        -0.4262 
     55 CA         28.5928   -1.8283   -6.7104 C.3       9 UNK         0.0264 
     56 CB         28.5719   -0.7615   -5.5966 C.3       9 UNK        -0.1955 
     57 C          29.9469   -2.5670   -6.7910 C.2       9 UNK         0.5031 
     58 O          30.4123   -3.0669   -5.7644 O.2       9 UNK        -0.5390 
     59 N          30.5206   -2.6543   -7.9980 N.am      10 UNK        -0.4204 
     60 CA         31.8816   -3.0830   -8.3300 C.3       10 UNK         0.0237 
     61 CB         32.1495   -4.5386   -7.8944 C.3       10 UNK        -0.1985 
     62 C          32.9451   -2.0863   -7.8240 C.2       10 UNK         0.4970 
     63 O          34.0473   -2.5047   -7.4647 O.2       10 UNK        -0.4914 
     64 N          32.6089   -0.7864   -7.8187 N.am      11 UNK        -0.4285 
     65 CA         33.5137    0.3018   -7.4053 C.3       11 UNK         0.1007 
     66 C          34.6585    0.6154   -8.4125 C.2       11 UNK         0.5703 
     67 N          34.6117    0.1317   -9.6486 N.am      11 UNK        -0.7361 
     68 O          35.6123    1.3060   -8.0612 O.2       11 UNK        -0.4986 
     69 C69        32.7503    1.6012   -7.0276 C.3       12 UNK        -0.0947 
     70 S70        31.4194    1.3363   -5.8149 S.3       12 UNK        -0.2240 
     71 C71        32.3503    1.2673   -4.2600 C.3       12 UNK         0.0194 
     72 H72        31.8498   -5.5729   -4.7304 H         1 UNK         0.0906 
     73 H73        31.9156   -7.2792   -4.3013 H         1 UNK         0.0906 
     74 H74        31.2637   -6.7958   -5.8702 H         1 UNK         0.0906 
     75 H75        29.8825   -4.4154   -4.4728 H         1 UNK         0.3140 
     76 H76        27.8894   -5.6805   -2.7140 H         1 UNK         0.1085 
     77 H77        26.9613   -3.2701   -2.6614 H         1 UNK         0.0836 
     78 H78        28.3514   -2.7835   -3.5926 H         1 UNK         0.0836 
     79 H79        30.8473   -3.2814   -2.7967 H         1 UNK         0.0731 
     80 H80        31.2942   -3.0871   -1.1235 H         1 UNK         0.0731 
     81 H81        31.8856   -1.3538   -3.7387 H         1 UNK         0.1312 
     82 H82        30.9308    2.5799   -2.3319 H         1 UNK         0.1406 
     83 H83        29.3687   -0.8553   -0.2983 H         1 UNK         0.1631 
     84 H84        29.8823    2.8112   -0.1132 H         1 UNK         0.0717 
     85 H85        29.4046    1.3940    0.7795 H         1 UNK         0.0717 
     86 H86        27.0648    4.1403   -1.8307 H         1 UNK         0.0934 
     87 H87        28.7564    3.7770   -2.0087 H         1 UNK         0.0934 
     88 H88        28.1903    1.8704   -3.5566 H         1 UNK         0.0739 
     89 H89        25.6404    2.0804   -2.5815 H         1 UNK         0.3093 
     90 H90        24.1249    0.5054   -3.2734 H         1 UNK         0.0818 
     91 H91        23.2643    2.8238   -3.7069 H         1 UNK         0.0819 
     92 H92        23.0739    2.4494   -5.4123 H         1 UNK         0.0819 
     93 H93        22.0925    1.6173   -4.2069 H         1 UNK         0.0819 
     94 H94        23.2416    0.0715   -5.9886 H         1 UNK         0.3041 
     95 H95        23.2224   -2.7209   -6.2919 H         1 UNK         0.0784 
     96 H96        23.2905   -0.8354   -7.8586 H         1 UNK         0.0793 
     97 H97        25.0452   -0.8103   -7.8725 H         1 UNK         0.0793 
     98 H98        24.1610   -2.1281   -8.6473 H         1 UNK         0.0793 
     99 H99        25.9515   -3.1409   -5.7946 H         1 UNK         0.3024 
    100 H100       25.9392   -6.4132   -6.8157 H         1 UNK         0.1171 
    101 H101       27.6693   -4.4727   -8.4529 H         1 UNK         0.0786 
    102 H102       27.9944   -6.1883   -8.2024 H         1 UNK         0.0786 
    103 H103       26.5889   -5.6857   -9.1230 H         1 UNK         0.0786 
    104 H104       28.2281   -4.9837   -6.0566 H         1 UNK         0.2977 
    105 H105       29.1269    2.5702   -5.3290 H         1 UNK         0.3127 
    106 H106       29.8254    3.6800   -7.0655 H         1 UNK         0.0770 
    107 H107       28.7149    6.2526   -5.8348 H         1 UNK         0.0814 
    108 H108       29.9359    6.1315   -7.0890 H         1 UNK         0.0814 
    109 H109       30.2927    5.5514   -5.4724 H         1 UNK         0.0814 
    110 H110       26.6376    3.0384   -6.7444 H         1 UNK         0.2983 
    111 H111       25.6934    4.3377   -9.2136 H         1 UNK         0.0947 
    112 H112       23.6827    2.9711   -8.8810 H         1 UNK         0.0806 
    113 H113       24.0979    3.7444   -7.3591 H         1 UNK         0.0806 
    114 H114       24.4522    2.0348   -7.6126 H         1 UNK         0.0806 
    115 H115       26.9753    1.2464   -8.1072 H         1 UNK         0.3000 
    116 H116       28.3497    0.7903  -10.5455 H         1 UNK         0.0850 
    117 H117       26.1030   -1.2281   -9.9314 H         1 UNK         0.0810 
    118 H118       27.4480   -1.5251  -11.0230 H         1 UNK         0.0810 
    119 H119       26.2865   -0.2639  -11.3856 H         1 UNK         0.0810 
    120 H120       27.1037   -1.5173   -8.1693 H         1 UNK         0.3040 
    121 H121       27.8887   -2.6000   -6.4121 H         1 UNK         0.0766 
    122 H122       28.8453    0.2241   -5.9660 H         1 UNK         0.0812 
    123 H123       27.5772   -0.6740   -5.1656 H         1 UNK         0.0812 
    124 H124       29.2479   -0.9958   -4.7760 H         1 UNK         0.0812 
    125 H125       30.0377   -2.1668   -8.7409 H         1 UNK         0.3205 
    126 H126       31.9426   -3.0559   -9.4188 H         1 UNK         0.0754 
    127 H127       33.0682   -4.9158   -8.3451 H         1 UNK         0.0769 
    128 H128       31.3408   -5.2038   -8.1965 H         1 UNK         0.0769 
    129 H129       32.2685   -4.6152   -6.8151 H         1 UNK         0.0769 
    130 H130       31.6772   -0.5036   -8.1060 H         1 UNK         0.2981 
    131 H131       34.0191   -0.0422   -6.5016 H         1 UNK         0.0541 
    132 H132       35.3620    0.3391  -10.2886 H         1 UNK         0.3459 
    133 H133       33.8312   -0.4291   -9.9487 H         1 UNK         0.3459 
    134 H134       32.2973    2.0415   -7.9177 H         1 UNK         0.0612 
    135 H135       33.4341    2.3527   -6.6283 H         1 UNK         0.0612 
    136 H136       33.2459    0.6587   -4.3887 H         1 UNK         0.0624 
    137 H137       32.6898    2.2701   -3.9967 H         1 UNK         0.0624 
@<TRIPOS>BOND
     1    1    2 1    
     2    1   72 1    
     3    1   73 1    
     4    1   74 1    
     5    2    3 2    
     6    2    4 am   BACKBONE|DICT|INTERRES
     7    4    5 1    
     8    4   75 1    
     9    5    6 1    
    10    5   35 1    
    11    5   76 1    
    12    6    7 1    
    13    6   77 1    
    14    6   78 1    
    15    7    8 1    
    16    8    9 1    
    17    8   79 1    
    18    8   80 1    
    19    9   10 ar   
    20    9   14 ar   
    21   10   11 ar   
    22   10   81 1    
    23   11   12 ar   
    24   11   71 1    
    25   12   13 ar   
    26   12   82 1    
    27   13   14 ar   
    28   13   15 1    
    29   14   83 1    
    30   15   16 1    
    31   15   84 1    
    32   15   85 1    
    33   16   17 1    
    34   17   18 1    
    35   17   86 1    
    36   17   87 1    
    37   18   19 1    
    38   18   37 1    
    39   18   88 1    
    40   19   20 am   BACKBONE|DICT|INTERRES
    41   19   89 1    
    42   20   21 2    
    43   20   22 1    
    44   22   23 1    
    45   22   24 1    
    46   22   90 1    
    47   23   91 1    
    48   23   92 1    
    49   23   93 1    
    50   24   25 am   BACKBONE|DICT|INTERRES
    51   24   94 1    
    52   25   26 2    
    53   25   27 1    
    54   27   28 1    
    55   27   29 1    
    56   27   95 1    
    57   28   96 1    
    58   28   97 1    
    59   28   98 1    
    60   29   30 am   BACKBONE|DICT|INTERRES
    61   29   99 1    
    62   30   31 2    
    63   30   32 1    
    64   32   33 1    
    65   32   34 1    
    66   32  100 1    
    67   33  101 1    
    68   33  102 1    
    69   33  103 1    
    70   34   35 am   BACKBONE|DICT|INTERRES
    71   34  104 1    
    72   35   36 2    
    73   37   38 2    
    74   37   39 am   BACKBONE|DICT|INTERRES
    75   39   40 1    
    76   39  105 1    
    77   40   41 1    
    78   40   42 1    
    79   40  106 1    
    80   41  107 1    
    81   41  108 1    
    82   41  109 1    
    83   42   43 2    
    84   42   44 am   BACKBONE|DICT|INTERRES
    85   44   45 1    
    86   44  110 1    
    87   45   46 1    
    88   45   47 1    
    89   45  111 1    
    90   46  112 1    
    91   46  113 1    
    92   46  114 1    
    93   47   48 2    
    94   47   49 am   BACKBONE|DICT|INTERRES
    95   49   50 1    
    96   49  115 1    
    97   50   51 1    
    98   50   52 1    
    99   50  116 1    
   100   51  117 1    
   101   51  118 1    
   102   51  119 1    
   103   52   53 2    
   104   52   54 am   BACKBONE|DICT|INTERRES
   105   54   55 1    
   106   54  120 1    
   107   55   56 1    
   108   55   57 1    
   109   55  121 1    
   110   56  122 1    
   111   56  123 1    
   112   56  124 1    
   113   57   58 2    
   114   57   59 am   BACKBONE|DICT|INTERRES
   115   59   60 1    
   116   59  125 1    
   117   60   61 1    
   118   60   62 1    
   119   60  126 1    
   120   61  127 1    
   121   61  128 1    
   122   61  129 1    
   123   62   63 2    
   124   62   64 am   BACKBONE|DICT|INTERRES
   125   64   65 1    
   126   64  130 1    
   127   65   66 1    
   128   65   69 1    
   129   65  131 1    
   130   66   67 am   BACKBONE|DICT|INTERRES
   131   66   68 2    
   132   67  132 1    
   133   67  133 1    
   134   69   70 1    
   135   69  134 1    
   136   69  135 1    
   137   70   71 1    
   138   71  136 1    
   139   71  137 1    
@<TRIPOS>SUBSTRUCTURE
     1 UNK         1 GROUP             0       ****    0 ROOT    
