@<TRIPOS>MOLECULE
3R137
137   139    1
SMALL
USER_CHARGES


@<TRIPOS>ATOM
      1 CA         22.6089   -1.3973   -6.5891 C.3       0 UNK        -0.2020 
      2 C          23.0512   -2.4737   -5.6121 C.2       0 UNK         0.4855 
      3 O          22.3339   -2.7789   -4.6584 O.2       0 UNK        -0.5197 
      4 N          24.2332   -3.0565   -5.8453 N.am      1 UNK        -0.4892 
      5 CA         24.8626   -4.0479   -4.9681 C.3       1 UNK         0.0835 
      6 C6         26.0629   -4.7524   -5.6503 C.3       12 UNK        -0.0855 
      7 S7         27.3193   -3.6248   -6.3615 S.3       12 UNK        -0.2931 
      8 C8         28.8598   -4.5586   -6.0655 C.3       12 UNK         0.0378 
      9 C9         29.7654   -3.9065   -5.0257 C.ar      12 UNK        -0.0802 
     10 C10        31.1116   -3.6684   -5.3299 C.ar      12 UNK        -0.0944 
     11 C11        31.9707   -3.1149   -4.3759 C.ar      12 UNK        -0.0787 
     12 C12        31.4717   -2.7905   -3.1129 C.ar      12 UNK        -0.0862 
     13 C13        30.1266   -3.0003   -2.8005 C.ar      12 UNK        -0.0733 
     14 C14        29.2801   -3.5733   -3.7547 C.ar      12 UNK        -0.0832 
     15 C15        29.6055   -2.5960   -1.4279 C.3       12 UNK         0.0240 
     16 S16        28.4074   -1.2194   -1.4711 S.3       12 UNK        -0.2522 
     17 C17        29.0747   -0.0539   -2.7152 C.3       12 UNK        -0.0967 
     18 CA         28.0917    0.1027   -3.9024 C.3       5 UNK         0.0660 
     19 N          26.8002    0.6406   -3.4440 N.am      5 UNK        -0.4015 
     20 C          25.7090    0.8569   -4.1896 C.2       4 UNK         0.4946 
     21 O          25.6735    0.7361   -5.4145 O.2       4 UNK        -0.5353 
     22 CA         24.4476    1.2638   -3.4207 C.3       4 UNK         0.0277 
     23 CB         23.3422    1.8232   -4.3420 C.3       4 UNK        -0.1981 
     24 N          23.9566    0.1102   -2.6661 N.am      4 UNK        -0.4209 
     25 C          23.1153    0.1865   -1.6243 C.2       3 UNK         0.4942 
     26 O          22.7100    1.2533   -1.1599 O.2       3 UNK        -0.5208 
     27 CA         22.6123   -1.1238   -0.9886 C.3       3 UNK         0.0250 
     28 CB         21.1778   -1.4256   -1.4530 C.3       3 UNK        -0.1990 
     29 N          23.4605   -2.2790   -1.2811 N.am      3 UNK        -0.4232 
     30 C          24.6078   -2.5592   -0.6465 C.2       2 UNK         0.4993 
     31 O          25.0323   -1.9076    0.3083 O.2       2 UNK        -0.5286 
     32 CA         25.4274   -3.7648   -1.1544 C.3       2 UNK         0.0209 
     33 CB         25.2700   -4.9628   -0.2037 C.3       2 UNK        -0.1931 
     34 N          25.1168   -4.1965   -2.5250 N.am      2 UNK        -0.4546 
     35 C          25.2472   -3.4240   -3.6120 C.2       1 UNK         0.5154 
     36 O          25.6264   -2.2549   -3.5619 O.2       1 UNK        -0.5181 
     37 C          28.7405    0.8919   -5.0610 C.2       5 UNK         0.5014 
     38 O          29.4931    0.3111   -5.8436 O.2       5 UNK        -0.5248 
     39 N          28.4096    2.1859   -5.1865 N.am      6 UNK        -0.4434 
     40 CA         28.8025    3.0534   -6.2999 C.3       6 UNK         0.0363 
     41 CB         28.3467    4.4909   -6.0042 C.3       6 UNK        -0.1936 
     42 C          28.2714    2.5955   -7.6732 C.2       6 UNK         0.5081 
     43 O          28.8821    2.9352   -8.6869 O.2       6 UNK        -0.5248 
     44 N          27.1819    1.8092   -7.7010 N.am      7 UNK        -0.4718 
     45 CA         26.5882    1.2378   -8.9175 C.3       7 UNK         0.0273 
     46 CB         25.2609    0.5499   -8.5651 C.3       7 UNK        -0.1935 
     47 C          27.5093    0.2570   -9.6668 C.2       7 UNK         0.5018 
     48 O          27.2909    0.0218  -10.8557 O.2       7 UNK        -0.5186 
     49 N          28.5330   -0.2727   -8.9809 N.am      8 UNK        -0.4240 
     50 CA         29.6034   -1.0771   -9.5717 C.3       8 UNK         0.0235 
     51 CB         30.3900   -1.7586   -8.4426 C.3       8 UNK        -0.2000 
     52 C          30.5595   -0.2654  -10.4668 C.2       8 UNK         0.4941 
     53 O          31.2998   -0.8732  -11.2417 O.2       8 UNK        -0.5273 
     54 N          30.5579    1.0723  -10.3331 N.am      9 UNK        -0.4262 
     55 CA         31.3810    2.0726  -11.0269 C.3       9 UNK         0.0264 
     56 CB         31.1399    2.0584  -12.5494 C.3       9 UNK        -0.1955 
     57 C          32.8777    1.9849  -10.6867 C.2       9 UNK         0.5031 
     58 O          33.4419    2.9572  -10.1836 O.2       9 UNK        -0.5390 
     59 N          33.4857    0.8155  -10.9220 N.am      10 UNK        -0.4204 
     60 CA         34.8870    0.5016  -10.6258 C.3       10 UNK         0.0237 
     61 CB         35.2288   -0.8788  -11.2091 C.3       10 UNK        -0.1985 
     62 C          35.2253    0.5522   -9.1249 C.2       10 UNK         0.4970 
     63 O          36.3745    0.8264   -8.7775 O.2       10 UNK        -0.4914 
     64 N          34.2213    0.3085   -8.2721 N.am      11 UNK        -0.4285 
     65 CA         34.3010    0.4666   -6.8137 C.3       11 UNK         0.1007 
     66 C          34.2333    1.9473   -6.3256 C.2       11 UNK         0.5703 
     67 N          33.9844    2.9313   -7.1843 N.am      11 UNK        -0.7361 
     68 O          34.4272    2.2160   -5.1429 O.2       11 UNK        -0.4986 
     69 C69        33.2624   -0.4414   -6.0952 C.3       12 UNK        -0.0947 
     70 S70        33.9209   -1.1398   -4.5451 S.3       12 UNK        -0.2240 
     71 C71        33.4456   -2.8934   -4.6855 C.3       12 UNK         0.0194 
     72 H72        22.4555   -1.8195   -7.5818 H         1 UNK         0.0906 
     73 H73        21.6742   -0.9407   -6.2643 H         1 UNK         0.0906 
     74 H74        23.3620   -0.6138   -6.6560 H         1 UNK         0.0906 
     75 H75        24.8151   -2.7325   -6.6052 H         1 UNK         0.3140 
     76 H76        24.1079   -4.8121   -4.7675 H         1 UNK         0.1085 
     77 H77        25.6934   -5.3780   -6.4643 H         1 UNK         0.0836 
     78 H78        26.5332   -5.4429   -4.9478 H         1 UNK         0.0836 
     79 H79        29.3809   -4.6475   -7.0197 H         1 UNK         0.0731 
     80 H80        28.6436   -5.5811   -5.7551 H         1 UNK         0.0731 
     81 H81        31.4968   -3.9284   -6.3063 H         1 UNK         0.1312 
     82 H82        32.1354   -2.3583   -2.3764 H         1 UNK         0.1406 
     83 H83        28.2400   -3.7411   -3.5127 H         1 UNK         0.1631 
     84 H84        30.4304   -2.3088   -0.7740 H         1 UNK         0.0717 
     85 H85        29.1331   -3.4583   -0.9557 H         1 UNK         0.0717 
     86 H86        29.2452    0.9085   -2.2295 H         1 UNK         0.0934 
     87 H87        30.0550   -0.3846   -3.0599 H         1 UNK         0.0934 
     88 H88        27.8861   -0.8922   -4.3042 H         1 UNK         0.0739 
     89 H89        26.7105    0.7252   -2.4420 H         1 UNK         0.3093 
     90 H90        24.7375    2.0506   -2.7209 H         1 UNK         0.0818 
     91 H91        22.9462    1.0566   -5.0064 H         1 UNK         0.0819 
     92 H92        22.5090    2.2274   -3.7674 H         1 UNK         0.0819 
     93 H93        23.7242    2.6322   -4.9659 H         1 UNK         0.0819 
     94 H94        24.3141   -0.7941   -2.9648 H         1 UNK         0.3041 
     95 H95        22.5900   -0.9728    0.0930 H         1 UNK         0.0784 
     96 H96        20.5065   -0.6017   -1.2070 H         1 UNK         0.0793 
     97 H97        21.1255   -1.5757   -2.5320 H         1 UNK         0.0793 
     98 H98        20.7827   -2.3191   -0.9693 H         1 UNK         0.0793 
     99 H99        23.1869   -2.8571   -2.0638 H         1 UNK         0.3024 
    100 H100       26.4741   -3.4555   -1.1413 H         1 UNK         0.1171 
    101 H101       25.9281   -5.7846   -0.4865 H         1 UNK         0.0786 
    102 H102       25.5256   -4.6855    0.8202 H         1 UNK         0.0786 
    103 H103       24.2458   -5.3378   -0.1934 H         1 UNK         0.0786 
    104 H104       24.7869   -5.1454   -2.6325 H         1 UNK         0.2977 
    105 H105       27.7766    2.5803   -4.5067 H         1 UNK         0.3127 
    106 H106       29.8932    3.0429   -6.3564 H         1 UNK         0.0770 
    107 H107       27.2618    4.5602   -5.9151 H         1 UNK         0.0814 
    108 H108       28.6514    5.1683   -6.8034 H         1 UNK         0.0814 
    109 H109       28.7866    4.8663   -5.0801 H         1 UNK         0.0814 
    110 H110       26.7413    1.5413   -6.8232 H         1 UNK         0.2983 
    111 H111       26.3764    2.0647   -9.5986 H         1 UNK         0.0947 
    112 H112       24.7564    0.1870   -9.4615 H         1 UNK         0.0806 
    113 H113       24.5780    1.2347   -8.0618 H         1 UNK         0.0806 
    114 H114       25.4215   -0.3079   -7.9109 H         1 UNK         0.0806 
    115 H115       28.6304   -0.0359   -8.0004 H         1 UNK         0.3000 
    116 H116       29.1479   -1.8510  -10.1931 H         1 UNK         0.0850 
    117 H117       31.1732   -2.4067   -8.8382 H         1 UNK         0.0810 
    118 H118       29.7370   -2.3742   -7.8262 H         1 UNK         0.0810 
    119 H119       30.8636   -1.0270   -7.7885 H         1 UNK         0.0810 
    120 H120       29.9129    1.4744   -9.6590 H         1 UNK         0.3040 
    121 H121       31.0342    3.0386  -10.6558 H         1 UNK         0.0766 
    122 H122       30.0849    2.2042  -12.7816 H         1 UNK         0.0812 
    123 H123       31.4562    1.1229  -13.0112 H         1 UNK         0.0812 
    124 H124       31.6928    2.8623  -13.0369 H         1 UNK         0.0812 
    125 H125       32.8991    0.0597  -11.2731 H         1 UNK         0.3205 
    126 H126       35.5061    1.2501  -11.1247 H         1 UNK         0.0754 
    127 H127       36.2731   -1.1348  -11.0234 H         1 UNK         0.0769 
    128 H128       35.0783   -0.9012  -12.2886 H         1 UNK         0.0769 
    129 H129       34.6154   -1.6661  -10.7686 H         1 UNK         0.0769 
    130 H130       33.3104    0.1030   -8.6511 H         1 UNK         0.2981 
    131 H131       35.2964    0.1187   -6.5305 H         1 UNK         0.0541 
    132 H132       33.8462    2.7560   -8.1723 H         1 UNK         0.3459 
    133 H133       33.9559    3.8777   -6.8407 H         1 UNK         0.3459 
    134 H134       32.3312    0.0888   -5.8859 H         1 UNK         0.0612 
    135 H135       32.9857   -1.2770   -6.7390 H         1 UNK         0.0612 
    136 H136       33.7059   -3.2677   -5.6768 H         1 UNK         0.0624 
    137 H137       34.0402   -3.4707   -3.9764 H         1 UNK         0.0624 
@<TRIPOS>BOND
     1    1    2 1    
     2    1   72 1    
     3    1   73 1    
     4    1   74 1    
     5    2    3 2    
     6    2    4 am   BACKBONE|DICT|INTERRES
     7    4    5 1    
     8    4   75 1    
     9    5    6 1    
    10    5   35 1    
    11    5   76 1    
    12    6    7 1    
    13    6   77 1    
    14    6   78 1    
    15    7    8 1    
    16    8    9 1    
    17    8   79 1    
    18    8   80 1    
    19    9   10 ar   
    20    9   14 ar   
    21   10   11 ar   
    22   10   81 1    
    23   11   12 ar   
    24   11   71 1    
    25   12   13 ar   
    26   12   82 1    
    27   13   14 ar   
    28   13   15 1    
    29   14   83 1    
    30   15   16 1    
    31   15   84 1    
    32   15   85 1    
    33   16   17 1    
    34   17   18 1    
    35   17   86 1    
    36   17   87 1    
    37   18   19 1    
    38   18   37 1    
    39   18   88 1    
    40   19   20 am   BACKBONE|DICT|INTERRES
    41   19   89 1    
    42   20   21 2    
    43   20   22 1    
    44   22   23 1    
    45   22   24 1    
    46   22   90 1    
    47   23   91 1    
    48   23   92 1    
    49   23   93 1    
    50   24   25 am   BACKBONE|DICT|INTERRES
    51   24   94 1    
    52   25   26 2    
    53   25   27 1    
    54   27   28 1    
    55   27   29 1    
    56   27   95 1    
    57   28   96 1    
    58   28   97 1    
    59   28   98 1    
    60   29   30 am   BACKBONE|DICT|INTERRES
    61   29   99 1    
    62   30   31 2    
    63   30   32 1    
    64   32   33 1    
    65   32   34 1    
    66   32  100 1    
    67   33  101 1    
    68   33  102 1    
    69   33  103 1    
    70   34   35 am   BACKBONE|DICT|INTERRES
    71   34  104 1    
    72   35   36 2    
    73   37   38 2    
    74   37   39 am   BACKBONE|DICT|INTERRES
    75   39   40 1    
    76   39  105 1    
    77   40   41 1    
    78   40   42 1    
    79   40  106 1    
    80   41  107 1    
    81   41  108 1    
    82   41  109 1    
    83   42   43 2    
    84   42   44 am   BACKBONE|DICT|INTERRES
    85   44   45 1    
    86   44  110 1    
    87   45   46 1    
    88   45   47 1    
    89   45  111 1    
    90   46  112 1    
    91   46  113 1    
    92   46  114 1    
    93   47   48 2    
    94   47   49 am   BACKBONE|DICT|INTERRES
    95   49   50 1    
    96   49  115 1    
    97   50   51 1    
    98   50   52 1    
    99   50  116 1    
   100   51  117 1    
   101   51  118 1    
   102   51  119 1    
   103   52   53 2    
   104   52   54 am   BACKBONE|DICT|INTERRES
   105   54   55 1    
   106   54  120 1    
   107   55   56 1    
   108   55   57 1    
   109   55  121 1    
   110   56  122 1    
   111   56  123 1    
   112   56  124 1    
   113   57   58 2    
   114   57   59 am   BACKBONE|DICT|INTERRES
   115   59   60 1    
   116   59  125 1    
   117   60   61 1    
   118   60   62 1    
   119   60  126 1    
   120   61  127 1    
   121   61  128 1    
   122   61  129 1    
   123   62   63 2    
   124   62   64 am   BACKBONE|DICT|INTERRES
   125   64   65 1    
   126   64  130 1    
   127   65   66 1    
   128   65   69 1    
   129   65  131 1    
   130   66   67 am   BACKBONE|DICT|INTERRES
   131   66   68 2    
   132   67  132 1    
   133   67  133 1    
   134   69   70 1    
   135   69  134 1    
   136   69  135 1    
   137   70   71 1    
   138   71  136 1    
   139   71  137 1    
@<TRIPOS>SUBSTRUCTURE
     1 UNK         1 GROUP             0       ****    0 ROOT    
