@<TRIPOS>MOLECULE
3R137
137   139    1
SMALL
USER_CHARGES


@<TRIPOS>ATOM
      1 CA         24.3713   -7.5214   -2.7104 C.3       0 UNK        -0.2020 
      2 C          25.3554   -6.7495   -1.8442 C.2       0 UNK         0.4855 
      3 O          25.9828   -7.3330   -0.9601 O.2       0 UNK        -0.5197 
      4 N          25.4923   -5.4435   -2.0888 N.am      1 UNK        -0.4892 
      5 CA         26.3477   -4.5156   -1.3521 C.3       1 UNK         0.0835 
      6 C6         27.8501   -4.6905   -1.6987 C.3       12 UNK        -0.0855 
      7 S7         28.9774   -4.1056   -0.3841 S.3       12 UNK        -0.2931 
      8 C8         30.6117   -4.5249   -1.0820 C.3       12 UNK         0.0378 
      9 C9         30.9156   -3.7049   -2.3279 C.ar      12 UNK        -0.0802 
     10 C10        31.5408   -2.4578   -2.2276 C.ar      12 UNK        -0.0944 
     11 C11        31.7632   -1.6744   -3.3667 C.ar      12 UNK        -0.0787 
     12 C12        31.3138   -2.1453   -4.6070 C.ar      12 UNK        -0.0862 
     13 C13        30.6908   -3.3915   -4.7222 C.ar      12 UNK        -0.0733 
     14 C14        30.5367   -4.1840   -3.5833 C.ar      12 UNK        -0.0832 
     15 C15        30.1738   -3.8629   -6.0775 C.3       12 UNK         0.0240 
     16 S16        28.4923   -4.5827   -6.0282 S.3       12 UNK        -0.2522 
     17 C17        27.4920   -3.2756   -5.2360 C.3       12 UNK        -0.0967 
     18 CA         26.8499   -2.2988   -6.2497 C.3       5 UNK         0.0660 
     19 N          25.6076   -1.7249   -5.7369 N.am      5 UNK        -0.4015 
     20 C          24.6074   -1.2872   -6.5130 C.2       4 UNK         0.4946 
     21 O          24.5764   -1.4173   -7.7372 O.2       4 UNK        -0.5353 
     22 CA         23.4520   -0.5561   -5.8085 C.3       4 UNK         0.0277 
     23 CB         22.3963   -1.5613   -5.3205 C.3       4 UNK        -0.1981 
     24 N          23.8895    0.2742   -4.6835 N.am      4 UNK        -0.4209 
     25 C          24.7341    1.3119   -4.7758 C.2       3 UNK         0.4942 
     26 O          25.2369    1.7028   -5.8283 O.2       3 UNK        -0.5208 
     27 CA         25.1166    2.0114   -3.4629 C.3       3 UNK         0.0250 
     28 CB         24.1038    3.1202   -3.1358 C.3       3 UNK        -0.1990 
     29 N          25.2456    1.1135   -2.3106 N.am      3 UNK        -0.4232 
     30 C          26.0194    0.0202   -2.2259 C.2       2 UNK         0.4993 
     31 O          26.7119   -0.4048   -3.1565 O.2       2 UNK        -0.5286 
     32 CA         26.0259   -0.6954   -0.8573 C.3       2 UNK         0.0209 
     33 CB         24.6889   -0.5580   -0.0910 C.3       2 UNK        -0.1931 
     34 N          26.4120   -2.1100   -0.9187 N.am      2 UNK        -0.4546 
     35 C          25.8234   -3.0893   -1.6170 C.2       1 UNK         0.5154 
     36 O          24.8982   -2.9131   -2.4190 O.2       1 UNK        -0.5181 
     37 C          27.8250   -1.1738   -6.6328 C.2       5 UNK         0.5014 
     38 O          28.3749   -1.1935   -7.7351 O.2       5 UNK        -0.5248 
     39 N          28.0272   -0.2177   -5.7129 N.am      6 UNK        -0.4434 
     40 CA         29.0367    0.8349   -5.8190 C.3       6 UNK         0.0363 
     41 CB         29.0666    1.6690   -4.5307 C.3       6 UNK        -0.1936 
     42 C          28.8879    1.7360   -7.0522 C.2       6 UNK         0.5081 
     43 O          29.8891    2.0033   -7.7177 O.2       6 UNK        -0.5248 
     44 N          27.6534    2.1590   -7.3567 N.am      7 UNK        -0.4718 
     45 CA         27.3432    2.9919   -8.5218 C.3       7 UNK         0.0273 
     46 CB         25.9309    3.5794   -8.3749 C.3       7 UNK        -0.1935 
     47 C          27.4742    2.2363   -9.8541 C.2       7 UNK         0.5018 
     48 O          27.8244    2.8536  -10.8600 O.2       7 UNK        -0.5186 
     49 N          27.2040    0.9234   -9.8397 N.am      8 UNK        -0.4240 
     50 CA         27.3404    0.0421  -11.0000 C.3       8 UNK         0.0235 
     51 CB         26.5345   -1.2472  -10.7709 C.3       8 UNK        -0.2000 
     52 C          28.8122   -0.2746  -11.3053 C.2       8 UNK         0.4941 
     53 O          29.2128   -0.2322  -12.4690 O.2       8 UNK        -0.5273 
     54 N          29.5906   -0.5731  -10.2564 N.am      9 UNK        -0.4262 
     55 CA         31.0178   -0.8889  -10.3455 C.3       9 UNK         0.0264 
     56 CB         31.4323   -1.6572   -9.0803 C.3       9 UNK        -0.1955 
     57 C          31.9236    0.3405  -10.5411 C.2       9 UNK         0.5031 
     58 O          33.0755    0.1616  -10.9394 O.2       9 UNK        -0.5390 
     59 N          31.4143    1.5426  -10.2257 N.am      10 UNK        -0.4204 
     60 CA         32.1462    2.8132  -10.1044 C.3       10 UNK         0.0237 
     61 CB         32.7249    3.2721  -11.4601 C.3       10 UNK        -0.1985 
     62 C          33.1953    2.7392   -8.9761 C.2       10 UNK         0.4970 
     63 O          34.3559    3.1085   -9.1646 O.2       10 UNK        -0.4914 
     64 N          32.7500    2.2084   -7.8333 N.am      11 UNK        -0.4285 
     65 CA         33.5373    1.9359   -6.6276 C.3       11 UNK         0.1007 
     66 C          33.9702    3.2361   -5.8974 C.2       11 UNK         0.5703 
     67 N          35.1749    3.2686   -5.3444 N.am      11 UNK        -0.7361 
     68 O          33.2128    4.2005   -5.8017 O.2       11 UNK        -0.4986 
     69 C69        32.7249    0.9866   -5.7139 C.3       12 UNK        -0.0947 
     70 S70        33.7041    0.0605   -4.4868 S.3       12 UNK        -0.2240 
     71 C71        32.4375   -0.3081   -3.2176 C.3       12 UNK         0.0194 
     72 H72        23.8937   -6.8828   -3.4534 H         1 UNK         0.0906 
     73 H73        24.8853   -8.3258   -3.2358 H         1 UNK         0.0906 
     74 H74        23.5912   -7.9627   -2.0906 H         1 UNK         0.0906 
     75 H75        24.9082   -4.9768   -2.7743 H         1 UNK         0.3140 
     76 H76        26.1988   -4.7161   -0.2884 H         1 UNK         0.1085 
     77 H77        28.0820   -5.7428   -1.8689 H         1 UNK         0.0836 
     78 H78        28.0773   -4.1806   -2.6316 H         1 UNK         0.0836 
     79 H79        31.3765   -4.3457   -0.3247 H         1 UNK         0.0731 
     80 H80        30.6504   -5.5920   -1.3071 H         1 UNK         0.0731 
     81 H81        31.8397   -2.0911   -1.2549 H         1 UNK         0.1312 
     82 H82        31.4427   -1.5461   -5.4923 H         1 UNK         0.1406 
     83 H83        30.0627   -5.1526   -3.6666 H         1 UNK         0.1631 
     84 H84        30.8631   -4.6080   -6.4761 H         1 UNK         0.0717 
     85 H85        30.1689   -3.0381   -6.7888 H         1 UNK         0.0717 
     86 H86        26.7042   -3.7996   -4.6923 H         1 UNK         0.0934 
     87 H87        28.0652   -2.7494   -4.4704 H         1 UNK         0.0934 
     88 H88        26.6139   -2.8572   -7.1587 H         1 UNK         0.0739 
     89 H89        25.5689   -1.5431   -4.7409 H         1 UNK         0.3093 
     90 H90        22.9861    0.1042   -6.5431 H         1 UNK         0.0818 
     91 H91        21.5259   -1.0534   -4.9048 H         1 UNK         0.0819 
     92 H92        22.0428   -2.1855   -6.1425 H         1 UNK         0.0819 
     93 H93        22.7959   -2.2270   -4.5537 H         1 UNK         0.0819 
     94 H94        23.5440    0.0217   -3.7690 H         1 UNK         0.3041 
     95 H95        26.0858    2.4849   -3.6131 H         1 UNK         0.0784 
     96 H96        24.0028    3.8149   -3.9712 H         1 UNK         0.0793 
     97 H97        23.1125    2.7156   -2.9270 H         1 UNK         0.0793 
     98 H98        24.4182    3.7038   -2.2703 H         1 UNK         0.0793 
     99 H99        24.7174    1.3736   -1.4902 H         1 UNK         0.3024 
    100 H100       26.8004   -0.1991   -0.2702 H         1 UNK         0.1171 
    101 H101       24.4804    0.4771    0.1815 H         1 UNK         0.0786 
    102 H102       24.7109   -1.1234    0.8409 H         1 UNK         0.0786 
    103 H103       23.8458   -0.9257   -0.6779 H         1 UNK         0.0786 
    104 H104       27.2159   -2.3659   -0.3589 H         1 UNK         0.2977 
    105 H105       27.5295   -0.2766   -4.8260 H         1 UNK         0.3127 
    106 H106       29.9919    0.3219   -5.9109 H         1 UNK         0.0770 
    107 H107       28.1332    2.2075   -4.3843 H         1 UNK         0.0814 
    108 H108       29.8614    2.4148   -4.5615 H         1 UNK         0.0814 
    109 H109       29.2366    1.0437   -3.6539 H         1 UNK         0.0814 
    110 H110       26.8705    1.8956   -6.7605 H         1 UNK         0.2983 
    111 H111       28.0553    3.8201   -8.5436 H         1 UNK         0.0947 
    112 H112       25.6965    4.2461   -9.2059 H         1 UNK         0.0806 
    113 H113       25.8357    4.1588   -7.4564 H         1 UNK         0.0806 
    114 H114       25.1694    2.7986   -8.3575 H         1 UNK         0.0806 
    115 H115       26.9599    0.4907   -8.9594 H         1 UNK         0.3000 
    116 H116       26.9208    0.5513  -11.8706 H         1 UNK         0.0850 
    117 H117       26.6011   -1.9073  -11.6368 H         1 UNK         0.0810 
    118 H118       25.4783   -1.0305  -10.6087 H         1 UNK         0.0810 
    119 H119       26.8938   -1.8066   -9.9065 H         1 UNK         0.0810 
    120 H120       29.1611   -0.6494   -9.3352 H         1 UNK         0.3040 
    121 H121       31.1736   -1.5441  -11.2053 H         1 UNK         0.0766 
    122 H122       31.2362   -1.0788   -8.1769 H         1 UNK         0.0812 
    123 H123       32.4965   -1.8971   -9.0927 H         1 UNK         0.0812 
    124 H124       30.8902   -2.5993   -9.0028 H         1 UNK         0.0812 
    125 H125       30.4741    1.5554   -9.8498 H         1 UNK         0.3205 
    126 H126       31.4126    3.5582   -9.7917 H         1 UNK         0.0754 
    127 H127       33.1518    4.2725  -11.3804 H         1 UNK         0.0769 
    128 H128       31.9517    3.3092  -12.2275 H         1 UNK         0.0769 
    129 H129       33.5167    2.6109  -11.8130 H         1 UNK         0.0769 
    130 H130       31.7530    2.0214   -7.7629 H         1 UNK         0.2981 
    131 H131       34.4366    1.4103   -6.9551 H         1 UNK         0.0541 
    132 H132       35.7906    2.4720   -5.3955 H         1 UNK         0.3459 
    133 H133       35.4688    4.0997   -4.8559 H         1 UNK         0.3459 
    134 H134       32.2373    0.2420   -6.3400 H         1 UNK         0.0612 
    135 H135       31.9317    1.5398   -5.2123 H         1 UNK         0.0612 
    136 H136       31.6730    0.4686   -3.2056 H         1 UNK         0.0624 
    137 H137       32.9345   -0.2503   -2.2481 H         1 UNK         0.0624 
@<TRIPOS>BOND
     1    1    2 1    
     2    1   72 1    
     3    1   73 1    
     4    1   74 1    
     5    2    3 2    
     6    2    4 am   BACKBONE|DICT|INTERRES
     7    4    5 1    
     8    4   75 1    
     9    5    6 1    
    10    5   35 1    
    11    5   76 1    
    12    6    7 1    
    13    6   77 1    
    14    6   78 1    
    15    7    8 1    
    16    8    9 1    
    17    8   79 1    
    18    8   80 1    
    19    9   10 ar   
    20    9   14 ar   
    21   10   11 ar   
    22   10   81 1    
    23   11   12 ar   
    24   11   71 1    
    25   12   13 ar   
    26   12   82 1    
    27   13   14 ar   
    28   13   15 1    
    29   14   83 1    
    30   15   16 1    
    31   15   84 1    
    32   15   85 1    
    33   16   17 1    
    34   17   18 1    
    35   17   86 1    
    36   17   87 1    
    37   18   19 1    
    38   18   37 1    
    39   18   88 1    
    40   19   20 am   BACKBONE|DICT|INTERRES
    41   19   89 1    
    42   20   21 2    
    43   20   22 1    
    44   22   23 1    
    45   22   24 1    
    46   22   90 1    
    47   23   91 1    
    48   23   92 1    
    49   23   93 1    
    50   24   25 am   BACKBONE|DICT|INTERRES
    51   24   94 1    
    52   25   26 2    
    53   25   27 1    
    54   27   28 1    
    55   27   29 1    
    56   27   95 1    
    57   28   96 1    
    58   28   97 1    
    59   28   98 1    
    60   29   30 am   BACKBONE|DICT|INTERRES
    61   29   99 1    
    62   30   31 2    
    63   30   32 1    
    64   32   33 1    
    65   32   34 1    
    66   32  100 1    
    67   33  101 1    
    68   33  102 1    
    69   33  103 1    
    70   34   35 am   BACKBONE|DICT|INTERRES
    71   34  104 1    
    72   35   36 2    
    73   37   38 2    
    74   37   39 am   BACKBONE|DICT|INTERRES
    75   39   40 1    
    76   39  105 1    
    77   40   41 1    
    78   40   42 1    
    79   40  106 1    
    80   41  107 1    
    81   41  108 1    
    82   41  109 1    
    83   42   43 2    
    84   42   44 am   BACKBONE|DICT|INTERRES
    85   44   45 1    
    86   44  110 1    
    87   45   46 1    
    88   45   47 1    
    89   45  111 1    
    90   46  112 1    
    91   46  113 1    
    92   46  114 1    
    93   47   48 2    
    94   47   49 am   BACKBONE|DICT|INTERRES
    95   49   50 1    
    96   49  115 1    
    97   50   51 1    
    98   50   52 1    
    99   50  116 1    
   100   51  117 1    
   101   51  118 1    
   102   51  119 1    
   103   52   53 2    
   104   52   54 am   BACKBONE|DICT|INTERRES
   105   54   55 1    
   106   54  120 1    
   107   55   56 1    
   108   55   57 1    
   109   55  121 1    
   110   56  122 1    
   111   56  123 1    
   112   56  124 1    
   113   57   58 2    
   114   57   59 am   BACKBONE|DICT|INTERRES
   115   59   60 1    
   116   59  125 1    
   117   60   61 1    
   118   60   62 1    
   119   60  126 1    
   120   61  127 1    
   121   61  128 1    
   122   61  129 1    
   123   62   63 2    
   124   62   64 am   BACKBONE|DICT|INTERRES
   125   64   65 1    
   126   64  130 1    
   127   65   66 1    
   128   65   69 1    
   129   65  131 1    
   130   66   67 am   BACKBONE|DICT|INTERRES
   131   66   68 2    
   132   67  132 1    
   133   67  133 1    
   134   69   70 1    
   135   69  134 1    
   136   69  135 1    
   137   70   71 1    
   138   71  136 1    
   139   71  137 1    
@<TRIPOS>SUBSTRUCTURE
     1 UNK         1 GROUP             0       ****    0 ROOT    
