@<TRIPOS>MOLECULE
3R137
137   139    1
SMALL
USER_CHARGES


@<TRIPOS>ATOM
      1 CA         30.7395    0.0230   -0.5160 C.3       0 UNK        -0.2020 
      2 C          30.5998   -1.0729    0.5392 C.2       0 UNK         0.4855 
      3 O          31.1417   -0.9188    1.6317 O.2       0 UNK        -0.5197 
      4 N          29.9014   -2.1905    0.2838 N.am      1 UNK        -0.4892 
      5 CA         29.1655   -2.5447   -0.9398 C.3       1 UNK         0.0835 
      6 C6         28.6120   -3.9910   -0.8819 C.3       12 UNK        -0.0855 
      7 S7         29.9387   -5.2256   -0.6631 S.3       12 UNK        -0.2931 
      8 C8         29.9385   -6.0790   -2.2752 C.3       12 UNK         0.0378 
      9 C9         30.1687   -5.1370   -3.4515 C.ar      12 UNK        -0.0802 
     10 C10        31.3044   -4.3210   -3.4976 C.ar      12 UNK        -0.0944 
     11 C11        31.5193   -3.4618   -4.5788 C.ar      12 UNK        -0.0787 
     12 C12        30.5941   -3.4336   -5.6251 C.ar      12 UNK        -0.0862 
     13 C13        29.4617   -4.2529   -5.6017 C.ar      12 UNK        -0.0733 
     14 C14        29.2539   -5.1017   -4.5099 C.ar      12 UNK        -0.0832 
     15 C15        28.5043   -4.2568   -6.7865 C.3       12 UNK         0.0240 
     16 S16        26.7858   -3.8662   -6.3231 S.3       12 UNK        -0.2522 
     17 C17        26.0813   -3.5479   -7.9836 C.3       12 UNK        -0.0967 
     18 CA         25.6944   -2.0689   -8.2403 C.3       5 UNK         0.0660 
     19 N          24.5466   -1.6652   -7.4264 N.am      5 UNK        -0.4015 
     20 C          23.8597   -0.5224   -7.5626 C.2       4 UNK         0.4946 
     21 O          24.0770    0.3034   -8.4508 O.2       4 UNK        -0.5353 
     22 CA         22.7713   -0.2267   -6.5117 C.3       4 UNK         0.0277 
     23 CB         21.3804   -0.5539   -7.0790 C.3       4 UNK        -0.1981 
     24 N          22.9404   -0.9118   -5.2205 N.am      4 UNK        -0.4209 
     25 C          24.0165   -0.8194   -4.4264 C.2       3 UNK         0.4942 
     26 O          25.0417   -0.2057   -4.7335 O.2       3 UNK        -0.5208 
     27 CA         23.9487   -1.5681   -3.0903 C.3       3 UNK         0.0250 
     28 CB         24.1598   -3.0792   -3.2910 C.3       3 UNK        -0.1990 
     29 N          25.0006   -1.0514   -2.2235 N.am      3 UNK        -0.4232 
     30 C          24.9200   -0.8275   -0.9106 C.2       2 UNK         0.4993 
     31 O          23.9326   -1.1048   -0.2267 O.2       2 UNK        -0.5286 
     32 CA         26.1698   -0.2028   -0.2573 C.3       2 UNK         0.0209 
     33 CB         25.8918    0.3279    1.1617 C.3       2 UNK        -0.1931 
     34 N          27.2910   -1.1448   -0.1959 N.am      2 UNK        -0.4546 
     35 C          28.0226   -1.5581   -1.2408 C.2       1 UNK         0.5154 
     36 O          27.8517   -1.1640   -2.3928 O.2       1 UNK        -0.5181 
     37 C          26.9081   -1.1210   -8.1032 C.2       5 UNK         0.5014 
     38 O          27.7137   -1.0492   -9.0332 O.2       5 UNK        -0.5248 
     39 N          27.0211   -0.4041   -6.9715 N.am      6 UNK        -0.4434 
     40 CA         28.1207    0.5128   -6.6617 C.3       6 UNK         0.0363 
     41 CB         27.9391    1.0851   -5.2493 C.3       6 UNK        -0.1936 
     42 C          28.2801    1.6596   -7.6674 C.2       6 UNK         0.5081 
     43 O          29.4078    2.0971   -7.8900 O.2       6 UNK        -0.5248 
     44 N          27.1699    2.1028   -8.2726 N.am      7 UNK        -0.4718 
     45 CA         27.1509    3.1311   -9.3145 C.3       7 UNK         0.0273 
     46 CB         25.7044    3.6033   -9.5305 C.3       7 UNK        -0.1935 
     47 C          27.7677    2.6563  -10.6420 C.2       7 UNK         0.5018 
     48 O          28.3447    3.4725  -11.3607 O.2       7 UNK        -0.5186 
     49 N          27.6431    1.3555  -10.9395 N.am      8 UNK        -0.4240 
     50 CA         28.2264    0.7185  -12.1206 C.3       8 UNK         0.0235 
     51 CB         27.3603   -0.4818  -12.5383 C.3       8 UNK        -0.2000 
     52 C          29.6740    0.2803  -11.8577 C.2       8 UNK         0.4941 
     53 O          30.5359    0.4863  -12.7122 O.2       8 UNK        -0.5273 
     54 N          29.9141   -0.3106  -10.6792 N.am      9 UNK        -0.4262 
     55 CA         31.2164   -0.8232  -10.2473 C.3       9 UNK         0.0264 
     56 CB         30.9903   -1.8055   -9.0881 C.3       9 UNK        -0.1955 
     57 C          32.2201    0.2663   -9.8274 C.2       9 UNK         0.5031 
     58 O          33.4111   -0.0344   -9.7373 O.2       9 UNK        -0.5390 
     59 N          31.7281    1.4829   -9.5470 N.am      10 UNK        -0.4204 
     60 CA         32.4448    2.6230   -8.9602 C.3       10 UNK         0.0237 
     61 CB         33.5688    3.1296   -9.8902 C.3       10 UNK        -0.1985 
     62 C          32.9198    2.3231   -7.5236 C.2       10 UNK         0.4970 
     63 O          34.0448    2.6678   -7.1568 O.2       10 UNK        -0.4914 
     64 N          32.0421    1.6784   -6.7434 N.am      11 UNK        -0.4285 
     65 CA         32.2642    1.3187   -5.3332 C.3       11 UNK         0.1007 
     66 C          31.8835    2.4510   -4.3335 C.2       11 UNK         0.5703 
     67 N          31.2290    3.5241   -4.7643 N.am      11 UNK        -0.7361 
     68 O          32.1994    2.3653   -3.1499 O.2       11 UNK        -0.4986 
     69 C69        31.5750   -0.0313   -4.9817 C.3       12 UNK        -0.0947 
     70 S70        32.5173   -1.0083   -3.7604 S.3       12 UNK        -0.2240 
     71 C71        32.7652   -2.5883   -4.6277 C.3       12 UNK         0.0194 
     72 H72        30.6979   -0.3611   -1.5328 H         1 UNK         0.0906 
     73 H73        29.9507    0.7649   -0.3957 H         1 UNK         0.0906 
     74 H74        31.6969    0.5321   -0.4065 H         1 UNK         0.0906 
     75 H75        29.8759   -2.9009    1.0018 H         1 UNK         0.3140 
     76 H76        29.8640   -2.4913   -1.7775 H         1 UNK         0.1085 
     77 H77        27.9079   -4.1025   -0.0550 H         1 UNK         0.0836 
     78 H78        28.0479   -4.2243   -1.7876 H         1 UNK         0.0836 
     79 H79        28.9949   -6.6160   -2.3848 H         1 UNK         0.0731 
     80 H80        30.7234   -6.8365   -2.2722 H         1 UNK         0.0731 
     81 H81        32.0190   -4.3513   -2.6862 H         1 UNK         0.1312 
     82 H82        30.7689   -2.7858   -6.4694 H         1 UNK         0.1406 
     83 H83        28.3814   -5.7409   -4.4939 H         1 UNK         0.1631 
     84 H84        28.5314   -5.2370   -7.2643 H         1 UNK         0.0717 
     85 H85        28.8364   -3.5379   -7.5371 H         1 UNK         0.0717 
     86 H86        26.7798   -3.8837   -8.7526 H         1 UNK         0.0934 
     87 H87        25.2034   -4.1846   -8.1053 H         1 UNK         0.0934 
     88 H88        25.3721   -1.9960   -9.2814 H         1 UNK         0.0739 
     89 H89        24.3125   -2.2753   -6.6574 H         1 UNK         0.3093 
     90 H90        22.8134    0.8461   -6.3118 H         1 UNK         0.0818 
     91 H91        20.5885   -0.2392   -6.3990 H         1 UNK         0.0819 
     92 H92        21.2129   -0.0380   -8.0258 H         1 UNK         0.0819 
     93 H93        21.2609   -1.6220   -7.2650 H         1 UNK         0.0819 
     94 H94        22.1500   -1.4510   -4.8958 H         1 UNK         0.3041 
     95 H95        22.9700   -1.3849   -2.6416 H         1 UNK         0.0784 
     96 H96        23.3957   -3.5058   -3.9416 H         1 UNK         0.0793 
     97 H97        25.1311   -3.2924   -3.7398 H         1 UNK         0.0793 
     98 H98        24.1095   -3.6127   -2.3416 H         1 UNK         0.0793 
     99 H99        25.8625   -0.8059   -2.7049 H         1 UNK         0.3024 
    100 H100       26.4668    0.6475   -0.8762 H         1 UNK         0.1171 
    101 H101       26.7635    0.8379    1.5724 H         1 UNK         0.0786 
    102 H102       25.0713    1.0468    1.1556 H         1 UNK         0.0786 
    103 H103       25.6177   -0.4741    1.8483 H         1 UNK         0.0786 
    104 H104       27.5097   -1.5244    0.7142 H         1 UNK         0.2977 
    105 H105       26.3085   -0.5023   -6.2530 H         1 UNK         0.3127 
    106 H106       29.0418   -0.0714   -6.6804 H         1 UNK         0.0770 
    107 H107       27.0091    1.6474   -5.1582 H         1 UNK         0.0814 
    108 H108       27.9231    0.2915   -4.5046 H         1 UNK         0.0814 
    109 H109       28.7537    1.7610   -4.9868 H         1 UNK         0.0814 
    110 H110       26.2863    1.6711   -8.0359 H         1 UNK         0.2983 
    111 H111       27.7419    3.9805   -8.9642 H         1 UNK         0.0947 
    112 H112       25.2834    4.0224   -8.6164 H         1 UNK         0.0806 
    113 H113       25.0568    2.7869   -9.8539 H         1 UNK         0.0806 
    114 H114       25.6568    4.3809  -10.2942 H         1 UNK         0.0806 
    115 H115       27.1993    0.7460  -10.2646 H         1 UNK         0.3000 
    116 H116       28.2352    1.4311  -12.9486 H         1 UNK         0.0850 
    117 H117       27.7677   -0.9645  -13.4277 H         1 UNK         0.0810 
    118 H118       26.3429   -0.1710  -12.7765 H         1 UNK         0.0810 
    119 H119       27.3038   -1.2382  -11.7545 H         1 UNK         0.0810 
    120 H120       29.1270   -0.4920  -10.0578 H         1 UNK         0.3040 
    121 H121       31.6622   -1.3721  -11.0796 H         1 UNK         0.0766 
    122 H122       30.5093   -1.3129   -8.2433 H         1 UNK         0.0812 
    123 H123       31.9337   -2.2243   -8.7346 H         1 UNK         0.0812 
    124 H124       30.3589   -2.6399   -9.3940 H         1 UNK         0.0812 
    125 H125       30.7228    1.5960   -9.5934 H         1 UNK         0.3205 
    126 H126       31.7112    3.4258   -8.8724 H         1 UNK         0.0754 
    127 H127       33.9947    4.0604   -9.5137 H         1 UNK         0.0769 
    128 H128       33.1925    3.3283  -10.8937 H         1 UNK         0.0769 
    129 H129       34.3853    2.4119   -9.9737 H         1 UNK         0.0769 
    130 H130       31.1073    1.5343   -7.1103 H         1 UNK         0.2981 
    131 H131       33.3397    1.1762   -5.2125 H         1 UNK         0.0541 
    132 H132       30.9658    3.6119   -5.7325 H         1 UNK         0.3459 
    133 H133       30.9975    4.2538   -4.1091 H         1 UNK         0.3459 
    134 H134       31.4646   -0.6331   -5.8833 H         1 UNK         0.0612 
    135 H135       30.5634    0.1157   -4.6019 H         1 UNK         0.0612 
    136 H136       33.5971   -3.1145   -4.1572 H         1 UNK         0.0624 
    137 H137       33.0706   -2.4029   -5.6588 H         1 UNK         0.0624 
@<TRIPOS>BOND
     1    1    2 1    
     2    1   72 1    
     3    1   73 1    
     4    1   74 1    
     5    2    3 2    
     6    2    4 am   BACKBONE|DICT|INTERRES
     7    4    5 1    
     8    4   75 1    
     9    5    6 1    
    10    5   35 1    
    11    5   76 1    
    12    6    7 1    
    13    6   77 1    
    14    6   78 1    
    15    7    8 1    
    16    8    9 1    
    17    8   79 1    
    18    8   80 1    
    19    9   10 ar   
    20    9   14 ar   
    21   10   11 ar   
    22   10   81 1    
    23   11   12 ar   
    24   11   71 1    
    25   12   13 ar   
    26   12   82 1    
    27   13   14 ar   
    28   13   15 1    
    29   14   83 1    
    30   15   16 1    
    31   15   84 1    
    32   15   85 1    
    33   16   17 1    
    34   17   18 1    
    35   17   86 1    
    36   17   87 1    
    37   18   19 1    
    38   18   37 1    
    39   18   88 1    
    40   19   20 am   BACKBONE|DICT|INTERRES
    41   19   89 1    
    42   20   21 2    
    43   20   22 1    
    44   22   23 1    
    45   22   24 1    
    46   22   90 1    
    47   23   91 1    
    48   23   92 1    
    49   23   93 1    
    50   24   25 am   BACKBONE|DICT|INTERRES
    51   24   94 1    
    52   25   26 2    
    53   25   27 1    
    54   27   28 1    
    55   27   29 1    
    56   27   95 1    
    57   28   96 1    
    58   28   97 1    
    59   28   98 1    
    60   29   30 am   BACKBONE|DICT|INTERRES
    61   29   99 1    
    62   30   31 2    
    63   30   32 1    
    64   32   33 1    
    65   32   34 1    
    66   32  100 1    
    67   33  101 1    
    68   33  102 1    
    69   33  103 1    
    70   34   35 am   BACKBONE|DICT|INTERRES
    71   34  104 1    
    72   35   36 2    
    73   37   38 2    
    74   37   39 am   BACKBONE|DICT|INTERRES
    75   39   40 1    
    76   39  105 1    
    77   40   41 1    
    78   40   42 1    
    79   40  106 1    
    80   41  107 1    
    81   41  108 1    
    82   41  109 1    
    83   42   43 2    
    84   42   44 am   BACKBONE|DICT|INTERRES
    85   44   45 1    
    86   44  110 1    
    87   45   46 1    
    88   45   47 1    
    89   45  111 1    
    90   46  112 1    
    91   46  113 1    
    92   46  114 1    
    93   47   48 2    
    94   47   49 am   BACKBONE|DICT|INTERRES
    95   49   50 1    
    96   49  115 1    
    97   50   51 1    
    98   50   52 1    
    99   50  116 1    
   100   51  117 1    
   101   51  118 1    
   102   51  119 1    
   103   52   53 2    
   104   52   54 am   BACKBONE|DICT|INTERRES
   105   54   55 1    
   106   54  120 1    
   107   55   56 1    
   108   55   57 1    
   109   55  121 1    
   110   56  122 1    
   111   56  123 1    
   112   56  124 1    
   113   57   58 2    
   114   57   59 am   BACKBONE|DICT|INTERRES
   115   59   60 1    
   116   59  125 1    
   117   60   61 1    
   118   60   62 1    
   119   60  126 1    
   120   61  127 1    
   121   61  128 1    
   122   61  129 1    
   123   62   63 2    
   124   62   64 am   BACKBONE|DICT|INTERRES
   125   64   65 1    
   126   64  130 1    
   127   65   66 1    
   128   65   69 1    
   129   65  131 1    
   130   66   67 am   BACKBONE|DICT|INTERRES
   131   66   68 2    
   132   67  132 1    
   133   67  133 1    
   134   69   70 1    
   135   69  134 1    
   136   69  135 1    
   137   70   71 1    
   138   71  136 1    
   139   71  137 1    
@<TRIPOS>SUBSTRUCTURE
     1 UNK         1 GROUP             0       ****    0 ROOT    
