@<TRIPOS>MOLECULE
3R137
137   139    1
SMALL
USER_CHARGES


@<TRIPOS>ATOM
      1 CA         24.0733   -1.0513   -6.5641 C.3       0 UNK        -0.2020 
      2 C          24.7135   -1.9131   -5.4886 C.2       0 UNK         0.4855 
      3 O          25.4835   -1.4030   -4.6736 O.2       0 UNK        -0.5197 
      4 N          24.3631   -3.2078   -5.4819 N.am      1 UNK        -0.4892 
      5 CA         24.7054   -4.2164   -4.4638 C.3       1 UNK         0.0835 
      6 C6         26.2263   -4.5117   -4.3444 C.3       12 UNK        -0.0855 
      7 S7         26.8607   -5.2848   -5.8688 S.3       12 UNK        -0.2931 
      8 C8         28.4698   -5.9253   -5.3118 C.3       12 UNK         0.0378 
      9 C9         29.4835   -4.8120   -5.0901 C.ar      12 UNK        -0.0802 
     10 C10        29.9932   -4.1036   -6.1828 C.ar      12 UNK        -0.0944 
     11 C11        30.9449   -3.0958   -6.0001 C.ar      12 UNK        -0.0787 
     12 C12        31.4113   -2.8274   -4.7103 C.ar      12 UNK        -0.0862 
     13 C13        30.8973   -3.5142   -3.6060 C.ar      12 UNK        -0.0733 
     14 C14        29.9310   -4.5053   -3.8013 C.ar      12 UNK        -0.0832 
     15 C15        31.3963   -3.1919   -2.2038 C.3       12 UNK         0.0240 
     16 S16        30.2473   -2.1105   -1.2909 S.3       12 UNK        -0.2522 
     17 C17        30.2640   -0.5948   -2.3071 C.3       12 UNK        -0.0967 
     18 CA         28.8695   -0.3166   -2.9346 C.3       5 UNK         0.0660 
     19 N          27.8817    0.1092   -1.9347 N.am      5 UNK        -0.4015 
     20 C          27.8839    1.2335   -1.2002 C.2       4 UNK         0.4946 
     21 O          28.7458    2.1106   -1.2785 O.2       4 UNK        -0.5353 
     22 CA         26.7182    1.4072   -0.2006 C.3       4 UNK         0.0277 
     23 CB         26.8273    2.7055    0.6227 C.3       4 UNK        -0.1981 
     24 N          25.4053    1.3725   -0.8524 N.am      4 UNK        -0.4209 
     25 C          24.8171    0.2669   -1.3220 C.2       3 UNK         0.4942 
     26 O          25.3320   -0.8514   -1.2380 O.2       3 UNK        -0.5208 
     27 CA         23.4609    0.4527   -2.0237 C.3       3 UNK         0.0250 
     28 CB         23.6059    1.3024   -3.3003 C.3       3 UNK        -0.1990 
     29 N          22.9010   -0.8479   -2.3852 N.am      3 UNK        -0.4232 
     30 C          22.2303   -1.6536   -1.5512 C.2       2 UNK         0.4993 
     31 O          21.8560   -1.3179   -0.4263 O.2       2 UNK        -0.5286 
     32 CA         21.9193   -3.0753   -2.0529 C.3       2 UNK         0.0209 
     33 CB         20.4366   -3.1955   -2.4439 C.3       2 UNK        -0.1931 
     34 N          22.7478   -3.4739   -3.1961 N.am      2 UNK        -0.4546 
     35 C          24.0156   -3.9084   -3.1155 C.2       1 UNK         0.5154 
     36 O          24.6100   -4.0775   -2.0499 O.2       1 UNK        -0.5181 
     37 C          28.9356    0.6943   -4.0961 C.2       5 UNK         0.5014 
     38 O          29.9045    1.4495   -4.1928 O.2       5 UNK        -0.5248 
     39 N          27.8925    0.7162   -4.9375 N.am      6 UNK        -0.4434 
     40 CA         27.7481    1.6810   -6.0341 C.3       6 UNK         0.0363 
     41 CB         26.8842    2.8643   -5.5556 C.3       6 UNK        -0.1936 
     42 C          27.2028    1.0181   -7.3090 C.2       6 UNK         0.5081 
     43 O          26.4095    1.6271   -8.0279 O.2       6 UNK        -0.5248 
     44 N          27.6049   -0.2337   -7.5572 N.am      7 UNK        -0.4718 
     45 CA         27.1028   -1.0567   -8.6602 C.3       7 UNK         0.0273 
     46 CB         27.3343   -2.5331   -8.3155 C.3       7 UNK        -0.1935 
     47 C          27.7242   -0.7400  -10.0298 C.2       7 UNK         0.5018 
     48 O          27.0933   -1.0350  -11.0461 O.2       7 UNK        -0.5186 
     49 N          28.9430   -0.1889  -10.0521 N.am      8 UNK        -0.4240 
     50 CA         29.7246    0.0480  -11.2644 C.3       8 UNK         0.0235 
     51 CB         30.4143   -1.2644  -11.6917 C.3       8 UNK        -0.2000 
     52 C          30.7607    1.1460  -11.0097 C.2       8 UNK         0.4941 
     53 O          30.9985    1.5105   -9.8576 O.2       8 UNK        -0.5273 
     54 N          31.4111    1.6082  -12.0873 N.am      9 UNK        -0.4262 
     55 CA         32.4930    2.6042  -12.0680 C.3       9 UNK         0.0264 
     56 CB         32.8432    2.9931  -13.5141 C.3       9 UNK        -0.1955 
     57 C          33.7604    2.1626  -11.3060 C.2       9 UNK         0.5031 
     58 O          34.5739    3.0142  -10.9461 O.2       9 UNK        -0.5390 
     59 N          33.8982    0.8528  -11.0551 N.am      10 UNK        -0.4204 
     60 CA         34.9089    0.2570  -10.1774 C.3       10 UNK         0.0237 
     61 CB         34.9378   -1.2621  -10.4176 C.3       10 UNK        -0.1985 
     62 C          34.6812    0.5572   -8.6807 C.2       10 UNK         0.4970 
     63 O          35.6032    0.3562   -7.8889 O.2       10 UNK        -0.4914 
     64 N          33.4790    1.0169   -8.3184 N.am      11 UNK        -0.4285 
     65 CA         33.0652    1.3890   -6.9638 C.3       11 UNK         0.1007 
     66 C          32.2895    2.7382   -6.9855 C.2       11 UNK         0.5703 
     67 N          31.3533    2.9816   -6.0800 N.am      11 UNK        -0.7361 
     68 O          32.5827    3.6205   -7.7911 O.2       11 UNK        -0.4986 
     69 C69        32.3907    0.2023   -6.2173 C.3       12 UNK        -0.0947 
     70 S70        30.9823   -0.5507   -7.1123 S.3       12 UNK        -0.2240 
     71 C71        31.4690   -2.3061   -7.1942 C.3       12 UNK         0.0194 
     72 H72        23.0533   -0.7937   -6.2808 H         1 UNK         0.0906 
     73 H73        24.6251   -0.1227   -6.6961 H         1 UNK         0.0906 
     74 H74        24.0447   -1.5710   -7.5213 H         1 UNK         0.0906 
     75 H75        23.7552   -3.5448   -6.2163 H         1 UNK         0.3140 
     76 H76        24.2324   -5.1429   -4.7949 H         1 UNK         0.1085 
     77 H77        26.4217   -5.1998   -3.5199 H         1 UNK         0.0836 
     78 H78        26.7949   -3.6059   -4.1285 H         1 UNK         0.0836 
     79 H79        28.3337   -6.5214   -4.4081 H         1 UNK         0.0731 
     80 H80        28.8552   -6.6083   -6.0702 H         1 UNK         0.0731 
     81 H81        29.6432   -4.3442   -7.1766 H         1 UNK         0.1312 
     82 H82        32.1653   -2.0684   -4.5634 H         1 UNK         0.1406 
     83 H83        29.5363   -5.0420   -2.9491 H         1 UNK         0.1631 
     84 H84        32.3794   -2.7200   -2.2434 H         1 UNK         0.0717 
     85 H85        31.5283   -4.1180   -1.6425 H         1 UNK         0.0717 
     86 H86        30.5901    0.2404   -1.6858 H         1 UNK         0.0934 
     87 H87        31.0283   -0.6854   -3.0778 H         1 UNK         0.0934 
     88 H88        28.5013   -1.2501   -3.3651 H         1 UNK         0.0739 
     89 H89        27.0889   -0.5155   -1.8013 H         1 UNK         0.3093 
     90 H90        26.7780    0.5713    0.5002 H         1 UNK         0.0818 
     91 H91        26.0317    2.7739    1.3649 H         1 UNK         0.0819 
     92 H92        27.7739    2.7472    1.1632 H         1 UNK         0.0819 
     93 H93        26.7741    3.5919   -0.0108 H         1 UNK         0.0819 
     94 H94        24.9439    2.2618   -0.9804 H         1 UNK         0.3041 
     95 H95        22.7816    0.9604   -1.3355 H         1 UNK         0.0784 
     96 H96        22.6619    1.3694   -3.8417 H         1 UNK         0.0793 
     97 H97        23.9113    2.3226   -3.0659 H         1 UNK         0.0793 
     98 H98        24.3519    0.8908   -3.9800 H         1 UNK         0.0793 
     99 H99        23.2415   -1.2499   -3.2456 H         1 UNK         0.3024 
    100 H100       22.1134   -3.7593   -1.2231 H         1 UNK         0.1171 
    101 H101       20.1803   -2.5308   -3.2699 H         1 UNK         0.0786 
    102 H102       19.7896   -2.9361   -1.6046 H         1 UNK         0.0786 
    103 H103       20.1854   -4.2141   -2.7404 H         1 UNK         0.0786 
    104 H104       22.3315   -3.3817   -4.1117 H         1 UNK         0.2977 
    105 H105       27.1318    0.0535   -4.8139 H         1 UNK         0.3127 
    106 H106       28.7268    2.0717   -6.3174 H         1 UNK         0.0770 
    107 H107       25.8720    2.5454   -5.3053 H         1 UNK         0.0814 
    108 H108       26.8062    3.6324   -6.3261 H         1 UNK         0.0814 
    109 H109       27.3154    3.3373   -4.6730 H         1 UNK         0.0814 
    110 H110       28.2865   -0.6555   -6.9410 H         1 UNK         0.2983 
    111 H111       26.0278   -0.8927   -8.7532 H         1 UNK         0.0947 
    112 H112       26.8747   -3.1876   -9.0571 H         1 UNK         0.0806 
    113 H113       26.9045   -2.7858   -7.3476 H         1 UNK         0.0806 
    114 H114       28.3971   -2.7699   -8.2852 H         1 UNK         0.0806 
    115 H115       29.3937    0.0896   -9.1883 H         1 UNK         0.3000 
    116 H116       29.0609    0.3935  -12.0601 H         1 UNK         0.0850 
    117 H117       31.0875   -1.6338  -10.9167 H         1 UNK         0.0810 
    118 H118       29.6848   -2.0482  -11.8965 H         1 UNK         0.0810 
    119 H119       31.0001   -1.1334  -12.6020 H         1 UNK         0.0810 
    120 H120       31.1538    1.2487  -12.9960 H         1 UNK         0.3040 
    121 H121       32.1112    3.4911  -11.5576 H         1 UNK         0.0766 
    122 H122       31.9782    3.4011  -14.0373 H         1 UNK         0.0812 
    123 H123       33.2112    2.1392  -14.0843 H         1 UNK         0.0812 
    124 H124       33.6208    3.7581  -13.5357 H         1 UNK         0.0812 
    125 H125       33.1894    0.2310  -11.4136 H         1 UNK         0.3205 
    126 H126       35.8829    0.6693  -10.4490 H         1 UNK         0.0754 
    127 H127       35.7081   -1.7391   -9.8098 H         1 UNK         0.0769 
    128 H128       35.1597   -1.4963  -11.4590 H         1 UNK         0.0769 
    129 H129       33.9859   -1.7297  -10.1615 H         1 UNK         0.0769 
    130 H130       32.7684    1.1920   -9.0226 H         1 UNK         0.2981 
    131 H131       33.9639    1.6373   -6.3970 H         1 UNK         0.0541 
    132 H132       30.8956    3.8777   -6.0964 H         1 UNK         0.3459 
    133 H133       31.0481    2.2833   -5.4059 H         1 UNK         0.3459 
    134 H134       32.0679    0.4976   -5.2201 H         1 UNK         0.0612 
    135 H135       33.1502   -0.5611   -6.0486 H         1 UNK         0.0612 
    136 H136       31.0727   -2.7188   -8.1231 H         1 UNK         0.0624 
    137 H137       32.5532   -2.4023   -7.2625 H         1 UNK         0.0624 
@<TRIPOS>BOND
     1    1    2 1    
     2    1   72 1    
     3    1   73 1    
     4    1   74 1    
     5    2    3 2    
     6    2    4 am   BACKBONE|DICT|INTERRES
     7    4    5 1    
     8    4   75 1    
     9    5    6 1    
    10    5   35 1    
    11    5   76 1    
    12    6    7 1    
    13    6   77 1    
    14    6   78 1    
    15    7    8 1    
    16    8    9 1    
    17    8   79 1    
    18    8   80 1    
    19    9   10 ar   
    20    9   14 ar   
    21   10   11 ar   
    22   10   81 1    
    23   11   12 ar   
    24   11   71 1    
    25   12   13 ar   
    26   12   82 1    
    27   13   14 ar   
    28   13   15 1    
    29   14   83 1    
    30   15   16 1    
    31   15   84 1    
    32   15   85 1    
    33   16   17 1    
    34   17   18 1    
    35   17   86 1    
    36   17   87 1    
    37   18   19 1    
    38   18   37 1    
    39   18   88 1    
    40   19   20 am   BACKBONE|DICT|INTERRES
    41   19   89 1    
    42   20   21 2    
    43   20   22 1    
    44   22   23 1    
    45   22   24 1    
    46   22   90 1    
    47   23   91 1    
    48   23   92 1    
    49   23   93 1    
    50   24   25 am   BACKBONE|DICT|INTERRES
    51   24   94 1    
    52   25   26 2    
    53   25   27 1    
    54   27   28 1    
    55   27   29 1    
    56   27   95 1    
    57   28   96 1    
    58   28   97 1    
    59   28   98 1    
    60   29   30 am   BACKBONE|DICT|INTERRES
    61   29   99 1    
    62   30   31 2    
    63   30   32 1    
    64   32   33 1    
    65   32   34 1    
    66   32  100 1    
    67   33  101 1    
    68   33  102 1    
    69   33  103 1    
    70   34   35 am   BACKBONE|DICT|INTERRES
    71   34  104 1    
    72   35   36 2    
    73   37   38 2    
    74   37   39 am   BACKBONE|DICT|INTERRES
    75   39   40 1    
    76   39  105 1    
    77   40   41 1    
    78   40   42 1    
    79   40  106 1    
    80   41  107 1    
    81   41  108 1    
    82   41  109 1    
    83   42   43 2    
    84   42   44 am   BACKBONE|DICT|INTERRES
    85   44   45 1    
    86   44  110 1    
    87   45   46 1    
    88   45   47 1    
    89   45  111 1    
    90   46  112 1    
    91   46  113 1    
    92   46  114 1    
    93   47   48 2    
    94   47   49 am   BACKBONE|DICT|INTERRES
    95   49   50 1    
    96   49  115 1    
    97   50   51 1    
    98   50   52 1    
    99   50  116 1    
   100   51  117 1    
   101   51  118 1    
   102   51  119 1    
   103   52   53 2    
   104   52   54 am   BACKBONE|DICT|INTERRES
   105   54   55 1    
   106   54  120 1    
   107   55   56 1    
   108   55   57 1    
   109   55  121 1    
   110   56  122 1    
   111   56  123 1    
   112   56  124 1    
   113   57   58 2    
   114   57   59 am   BACKBONE|DICT|INTERRES
   115   59   60 1    
   116   59  125 1    
   117   60   61 1    
   118   60   62 1    
   119   60  126 1    
   120   61  127 1    
   121   61  128 1    
   122   61  129 1    
   123   62   63 2    
   124   62   64 am   BACKBONE|DICT|INTERRES
   125   64   65 1    
   126   64  130 1    
   127   65   66 1    
   128   65   69 1    
   129   65  131 1    
   130   66   67 am   BACKBONE|DICT|INTERRES
   131   66   68 2    
   132   67  132 1    
   133   67  133 1    
   134   69   70 1    
   135   69  134 1    
   136   69  135 1    
   137   70   71 1    
   138   71  136 1    
   139   71  137 1    
@<TRIPOS>SUBSTRUCTURE
     1 UNK         1 GROUP             0       ****    0 ROOT    
