@<TRIPOS>MOLECULE
3R137
137   139    1
SMALL
USER_CHARGES


@<TRIPOS>ATOM
      1 CA         28.2744   -2.3646    4.1661 C.3       0 UNK        -0.2020 
      2 C          28.4613   -1.9011    2.7290 C.2       0 UNK         0.4855 
      3 O          29.2089   -0.9537    2.4836 O.2       0 UNK        -0.5197 
      4 N          27.7954   -2.5656    1.7762 N.am      1 UNK        -0.4892 
      5 CA         27.8001   -2.2079    0.3550 C.3       1 UNK         0.0835 
      6 C6         27.3034   -3.3916   -0.5144 C.3       12 UNK        -0.0855 
      7 S7         27.7191   -3.1902   -2.2795 S.3       12 UNK        -0.2931 
      8 C8         29.1403   -4.3156   -2.4422 C.3       12 UNK         0.0378 
      9 C9         29.7780   -4.1664   -3.8134 C.ar      12 UNK        -0.0802 
     10 C10        30.9190   -3.3756   -3.9782 C.ar      12 UNK        -0.0944 
     11 C11        31.4804   -3.2017   -5.2454 C.ar      12 UNK        -0.0787 
     12 C12        30.8749   -3.8041   -6.3514 C.ar      12 UNK        -0.0862 
     13 C13        29.7279   -4.5916   -6.2075 C.ar      12 UNK        -0.0733 
     14 C14        29.2093   -4.7994   -4.9231 C.ar      12 UNK        -0.0832 
     15 C15        29.1057   -5.1939   -7.4705 C.3       12 UNK         0.0240 
     16 S16        27.3578   -5.7366   -7.3761 S.3       12 UNK        -0.2522 
     17 C17        26.4218   -4.3214   -6.6959 C.3       12 UNK        -0.0967 
     18 CA         26.2478   -3.0991   -7.6369 C.3       5 UNK         0.0660 
     19 N          25.0130   -2.3805   -7.3055 N.am      5 UNK        -0.4015 
     20 C          24.5522   -1.2594   -7.8787 C.2       4 UNK         0.4946 
     21 O          25.0496   -0.7367   -8.8741 O.2       4 UNK        -0.5353 
     22 CA         23.3652   -0.5687   -7.1775 C.3       4 UNK         0.0277 
     23 CB         22.0340   -1.0492   -7.7765 C.3       4 UNK        -0.1981 
     24 N          23.3464   -0.7561   -5.7189 N.am      4 UNK        -0.4209 
     25 C          24.3438   -0.4175   -4.8877 C.2       3 UNK         0.4942 
     26 O          25.3815    0.1341   -5.2634 O.2       3 UNK        -0.5208 
     27 CA         24.1786   -0.8438   -3.4184 C.3       3 UNK         0.0250 
     28 CB         24.0985   -2.3775   -3.2979 C.3       3 UNK        -0.1990 
     29 N          25.3024   -0.3859   -2.6029 N.am      3 UNK        -0.4232 
     30 C          25.4328    0.8366   -2.0715 C.2       2 UNK         0.4993 
     31 O          24.5709    1.7136   -2.1587 O.2       2 UNK        -0.5286 
     32 CA         26.7535    1.1264   -1.3238 C.3       2 UNK         0.0209 
     33 CB         26.5905    2.1841   -0.2103 C.3       2 UNK        -0.1931 
     34 N          27.4209   -0.0835   -0.8141 N.am      2 UNK        -0.4546 
     35 C          26.9570   -0.9368    0.1133 C.2       1 UNK         0.5154 
     36 O          25.8964   -0.7866    0.7260 O.2       1 UNK        -0.5181 
     37 C          27.4750   -2.1655   -7.5674 C.2       5 UNK         0.5014 
     38 O          28.2086   -2.0386   -8.5491 O.2       5 UNK        -0.5248 
     39 N          27.6487   -1.5043   -6.4135 N.am      6 UNK        -0.4434 
     40 CA         28.7428   -0.5733   -6.1483 C.3       6 UNK         0.0363 
     41 CB         28.7915   -0.2324   -4.6509 C.3       6 UNK        -0.1936 
     42 C          28.6473    0.7003   -6.9960 C.2       6 UNK         0.5081 
     43 O          29.6740    1.1836   -7.4710 O.2       6 UNK        -0.5248 
     44 N          27.4201    1.1980   -7.2050 N.am      7 UNK        -0.4718 
     45 CA         27.1307    2.3379   -8.0784 C.3       7 UNK         0.0273 
     46 CB         25.6580    2.7489   -7.9296 C.3       7 UNK        -0.1935 
     47 C          27.4783    2.0607   -9.5518 C.2       7 UNK         0.5018 
     48 O          28.0648    2.9264  -10.2015 O.2       7 UNK        -0.5186 
     49 N          27.1423    0.8573  -10.0408 N.am      8 UNK        -0.4240 
     50 CA         27.4884    0.3787  -11.3813 C.3       8 UNK         0.0235 
     51 CB         26.6962   -0.8995  -11.6999 C.3       8 UNK        -0.2000 
     52 C          28.9973    0.1409  -11.5544 C.2       8 UNK         0.4941 
     53 O          29.5468    0.5054  -12.5947 O.2       8 UNK        -0.5273 
     54 N          29.6412   -0.4502  -10.5369 N.am      9 UNK        -0.4262 
     55 CA         31.0894   -0.6768  -10.4945 C.3       9 UNK         0.0264 
     56 CB         31.4186   -1.6398   -9.3436 C.3       9 UNK        -0.1955 
     57 C          31.9107    0.6182  -10.3577 C.2       9 UNK         0.5031 
     58 O          33.0466    0.6577  -10.8326 O.2       9 UNK        -0.5390 
     59 N          31.3292    1.6338   -9.7022 N.am      10 UNK        -0.4204 
     60 CA         31.9099    2.9348   -9.3518 C.3       10 UNK         0.0237 
     61 CB         32.2585    3.7530  -10.6136 C.3       10 UNK        -0.1985 
     62 C          33.0811    2.8158   -8.3560 C.2       10 UNK         0.4970 
     63 O          34.0115    3.6233   -8.4012 O.2       10 UNK        -0.4914 
     64 N          33.0142    1.8091   -7.4763 N.am      11 UNK        -0.4285 
     65 CA         33.9821    1.5608   -6.4010 C.3       11 UNK         0.1007 
     66 C          33.8089    2.5237   -5.1922 C.2       11 UNK         0.5703 
     67 N          34.8150    2.6210   -4.3329 N.am      11 UNK        -0.7361 
     68 O          32.7788    3.1723   -5.0145 O.2       11 UNK        -0.4986 
     69 C69        33.9977    0.0645   -5.9858 C.3       12 UNK        -0.0947 
     70 S70        32.3688   -0.5952   -5.5000 S.3       12 UNK        -0.2240 
     71 C71        32.7428   -2.3711   -5.4224 C.3       12 UNK         0.0194 
     72 H72        27.6005   -3.2183    4.2358 H         1 UNK         0.0906 
     73 H73        29.2334   -2.6543    4.5948 H         1 UNK         0.0906 
     74 H74        27.8614   -1.5568    4.7696 H         1 UNK         0.0906 
     75 H75        27.1652   -3.3099    2.0400 H         1 UNK         0.3140 
     76 H76        28.8362   -1.9936    0.0811 H         1 UNK         0.1085 
     77 H77        27.7432   -4.3262   -0.1615 H         1 UNK         0.0836 
     78 H78        26.2232   -3.5222   -0.4199 H         1 UNK         0.0836 
     79 H79        28.8124   -5.3453   -2.2911 H         1 UNK         0.0731 
     80 H80        29.8686   -4.1008   -1.6584 H         1 UNK         0.0731 
     81 H81        31.3677   -2.8885   -3.1232 H         1 UNK         0.1312 
     82 H82        31.3012   -3.6582   -7.3335 H         1 UNK         0.1406 
     83 H83        28.3411   -5.4266   -4.7791 H         1 UNK         0.1631 
     84 H84        29.7053   -6.0580   -7.7588 H         1 UNK         0.0717 
     85 H85        29.1935   -4.4859   -8.2951 H         1 UNK         0.0717 
     86 H86        25.4386   -4.7405   -6.4746 H         1 UNK         0.0934 
     87 H87        26.8088   -4.0282   -5.7205 H         1 UNK         0.0934 
     88 H88        26.1462   -3.4491   -8.6662 H         1 UNK         0.0739 
     89 H89        24.5022   -2.7265   -6.5080 H         1 UNK         0.3093 
     90 H90        23.4538    0.5026   -7.3636 H         1 UNK         0.0818 
     91 H91        21.1896   -0.4976   -7.3626 H         1 UNK         0.0819 
     92 H92        22.0168   -0.8988   -8.8571 H         1 UNK         0.0819 
     93 H93        21.8656   -2.1111   -7.5930 H         1 UNK         0.0819 
     94 H94        22.5231   -1.1962   -5.3326 H         1 UNK         0.3041 
     95 H95        23.2544   -0.4067   -3.0345 H         1 UNK         0.0784 
     96 H96        23.2139   -2.7747   -3.7966 H         1 UNK         0.0793 
     97 H97        24.0377   -2.6877   -2.2542 H         1 UNK         0.0793 
     98 H98        24.9698   -2.8658   -3.7366 H         1 UNK         0.0793 
     99 H99        26.0723   -1.0311   -2.4999 H         1 UNK         0.3024 
    100 H100       27.4238    1.5489   -2.0742 H         1 UNK         0.1171 
    101 H101       27.5357    2.3745    0.2980 H         1 UNK         0.0786 
    102 H102       26.2485    3.1349   -0.6210 H         1 UNK         0.0786 
    103 H103       25.8617    1.8761    0.5398 H         1 UNK         0.0786 
    104 H104       28.2969   -0.3121   -1.2644 H         1 UNK         0.2977 
    105 H105       26.9505   -1.5872   -5.6893 H         1 UNK         0.3127 
    106 H106       29.6709   -1.0790   -6.4154 H         1 UNK         0.0770 
    107 H107       27.8679    0.2339   -4.3091 H         1 UNK         0.0814 
    108 H108       29.6058    0.4614   -4.4379 H         1 UNK         0.0814 
    109 H109       28.9659   -1.1247   -4.0515 H         1 UNK         0.0814 
    110 H110       26.6366    0.7590   -6.7305 H         1 UNK         0.2983 
    111 H111       27.7519    3.1715   -7.7432 H         1 UNK         0.0947 
    112 H112       25.3966    2.9303   -6.8867 H         1 UNK         0.0806 
    113 H113       24.9857    1.9848   -8.3179 H         1 UNK         0.0806 
    114 H114       25.4553    3.6677   -8.4813 H         1 UNK         0.0806 
    115 H115       26.5988    0.2244   -9.4580 H         1 UNK         0.3000 
    116 H116       27.1912    1.1482  -12.0970 H         1 UNK         0.0850 
    117 H117       26.9340   -1.2695  -12.6980 H         1 UNK         0.0810 
    118 H118       25.6220   -0.7163  -11.6687 H         1 UNK         0.0810 
    119 H119       26.9174   -1.6991  -10.9918 H         1 UNK         0.0810 
    120 H120       29.0985   -0.7972   -9.7489 H         1 UNK         0.3040 
    121 H121       31.3824   -1.1539  -11.4321 H         1 UNK         0.0766 
    122 H122       31.1179   -1.2306   -8.3788 H         1 UNK         0.0812 
    123 H123       32.4892   -1.8427   -9.2934 H         1 UNK         0.0812 
    124 H124       30.9108   -2.5952   -9.4755 H         1 UNK         0.0812 
    125 H125       30.4339    1.4446   -9.2593 H         1 UNK         0.3205 
    126 H126       31.1232    3.4734   -8.8212 H         1 UNK         0.0754 
    127 H127       32.5419    4.7732  -10.3520 H         1 UNK         0.0769 
    128 H128       31.4056    3.8177  -11.2896 H         1 UNK         0.0769 
    129 H129       33.0918    3.3160  -11.1644 H         1 UNK         0.0769 
    130 H130       32.1802    1.2384   -7.4557 H         1 UNK         0.2981 
    131 H131       34.9701    1.7780   -6.8119 H         1 UNK         0.0541 
    132 H132       35.6653    2.0952   -4.4617 H         1 UNK         0.3459 
    133 H133       34.7218    3.2354   -3.5393 H         1 UNK         0.3459 
    134 H134       34.7040   -0.1093   -5.1722 H         1 UNK         0.0612 
    135 H135       34.3627   -0.5289   -6.8255 H         1 UNK         0.0612 
    136 H136       33.4310   -2.5579   -4.5968 H         1 UNK         0.0624 
    137 H137       33.2630   -2.6714   -6.3334 H         1 UNK         0.0624 
@<TRIPOS>BOND
     1    1    2 1    
     2    1   72 1    
     3    1   73 1    
     4    1   74 1    
     5    2    3 2    
     6    2    4 am   BACKBONE|DICT|INTERRES
     7    4    5 1    
     8    4   75 1    
     9    5    6 1    
    10    5   35 1    
    11    5   76 1    
    12    6    7 1    
    13    6   77 1    
    14    6   78 1    
    15    7    8 1    
    16    8    9 1    
    17    8   79 1    
    18    8   80 1    
    19    9   10 ar   
    20    9   14 ar   
    21   10   11 ar   
    22   10   81 1    
    23   11   12 ar   
    24   11   71 1    
    25   12   13 ar   
    26   12   82 1    
    27   13   14 ar   
    28   13   15 1    
    29   14   83 1    
    30   15   16 1    
    31   15   84 1    
    32   15   85 1    
    33   16   17 1    
    34   17   18 1    
    35   17   86 1    
    36   17   87 1    
    37   18   19 1    
    38   18   37 1    
    39   18   88 1    
    40   19   20 am   BACKBONE|DICT|INTERRES
    41   19   89 1    
    42   20   21 2    
    43   20   22 1    
    44   22   23 1    
    45   22   24 1    
    46   22   90 1    
    47   23   91 1    
    48   23   92 1    
    49   23   93 1    
    50   24   25 am   BACKBONE|DICT|INTERRES
    51   24   94 1    
    52   25   26 2    
    53   25   27 1    
    54   27   28 1    
    55   27   29 1    
    56   27   95 1    
    57   28   96 1    
    58   28   97 1    
    59   28   98 1    
    60   29   30 am   BACKBONE|DICT|INTERRES
    61   29   99 1    
    62   30   31 2    
    63   30   32 1    
    64   32   33 1    
    65   32   34 1    
    66   32  100 1    
    67   33  101 1    
    68   33  102 1    
    69   33  103 1    
    70   34   35 am   BACKBONE|DICT|INTERRES
    71   34  104 1    
    72   35   36 2    
    73   37   38 2    
    74   37   39 am   BACKBONE|DICT|INTERRES
    75   39   40 1    
    76   39  105 1    
    77   40   41 1    
    78   40   42 1    
    79   40  106 1    
    80   41  107 1    
    81   41  108 1    
    82   41  109 1    
    83   42   43 2    
    84   42   44 am   BACKBONE|DICT|INTERRES
    85   44   45 1    
    86   44  110 1    
    87   45   46 1    
    88   45   47 1    
    89   45  111 1    
    90   46  112 1    
    91   46  113 1    
    92   46  114 1    
    93   47   48 2    
    94   47   49 am   BACKBONE|DICT|INTERRES
    95   49   50 1    
    96   49  115 1    
    97   50   51 1    
    98   50   52 1    
    99   50  116 1    
   100   51  117 1    
   101   51  118 1    
   102   51  119 1    
   103   52   53 2    
   104   52   54 am   BACKBONE|DICT|INTERRES
   105   54   55 1    
   106   54  120 1    
   107   55   56 1    
   108   55   57 1    
   109   55  121 1    
   110   56  122 1    
   111   56  123 1    
   112   56  124 1    
   113   57   58 2    
   114   57   59 am   BACKBONE|DICT|INTERRES
   115   59   60 1    
   116   59  125 1    
   117   60   61 1    
   118   60   62 1    
   119   60  126 1    
   120   61  127 1    
   121   61  128 1    
   122   61  129 1    
   123   62   63 2    
   124   62   64 am   BACKBONE|DICT|INTERRES
   125   64   65 1    
   126   64  130 1    
   127   65   66 1    
   128   65   69 1    
   129   65  131 1    
   130   66   67 am   BACKBONE|DICT|INTERRES
   131   66   68 2    
   132   67  132 1    
   133   67  133 1    
   134   69   70 1    
   135   69  134 1    
   136   69  135 1    
   137   70   71 1    
   138   71  136 1    
   139   71  137 1    
@<TRIPOS>SUBSTRUCTURE
     1 UNK         1 GROUP             0       ****    0 ROOT    
