@<TRIPOS>MOLECULE
3R137
137   139    1
SMALL
USER_CHARGES


@<TRIPOS>ATOM
      1 CA         23.4151   -1.1749   -0.3835 C.3       0 UNK        -0.2020 
      2 C          24.9324   -1.1274   -0.4755 C.2       0 UNK         0.4855 
      3 O          25.5258   -0.0724   -0.2475 O.2       0 UNK        -0.5197 
      4 N          25.5704   -2.2598   -0.8042 N.am      1 UNK        -0.4892 
      5 CA         27.0252   -2.3701   -0.9582 C.3       1 UNK         0.0835 
      6 C6         27.4903   -3.8431   -1.0712 C.3       12 UNK        -0.0855 
      7 S7         29.1951   -4.0484   -0.4528 S.3       12 UNK        -0.2931 
      8 C8         29.9366   -5.1503   -1.7002 C.3       12 UNK         0.0378 
      9 C9         30.1523   -4.4686   -3.0456 C.ar      12 UNK        -0.0802 
     10 C10        31.0186   -3.3762   -3.1544 C.ar      12 UNK        -0.0944 
     11 C11        31.2530   -2.7771   -4.3954 C.ar      12 UNK        -0.0787 
     12 C12        30.6085   -3.2718   -5.5329 C.ar      12 UNK        -0.0862 
     13 C13        29.7505   -4.3721   -5.4422 C.ar      12 UNK        -0.0733 
     14 C14        29.5274   -4.9650   -4.1939 C.ar      12 UNK        -0.0832 
     15 C15        29.1153   -4.9460   -6.7053 C.3       12 UNK         0.0240 
     16 S16        27.3255   -5.2442   -6.5425 S.3       12 UNK        -0.2522 
     17 C17        26.7161   -3.5487   -6.2726 C.3       12 UNK        -0.0967 
     18 CA         25.2084   -3.3883   -6.6250 C.3       5 UNK         0.0660 
     19 N          24.5636   -2.3358   -5.8339 N.am      5 UNK        -0.4015 
     20 C          24.8843   -1.0344   -5.8461 C.2       4 UNK         0.4946 
     21 O          25.7800   -0.5566   -6.5417 O.2       4 UNK        -0.5353 
     22 CA         24.0852   -0.0952   -4.9311 C.3       4 UNK         0.0277 
     23 CB         23.0539   -0.7997   -4.0251 C.3       4 UNK        -0.1981 
     24 N          25.0365    0.6398   -4.1023 N.am      4 UNK        -0.4209 
     25 C          25.0385    1.9659   -3.9147 C.2       3 UNK         0.4942 
     26 O          24.1964    2.7222   -4.4011 O.2       3 UNK        -0.5208 
     27 CA         26.1432    2.5700   -3.0253 C.3       3 UNK         0.0250 
     28 CB         25.5391    3.1756   -1.7468 C.3       3 UNK        -0.1990 
     29 N          27.1769    1.6031   -2.6487 N.am      3 UNK        -0.4232 
     30 C          28.2311    1.2833   -3.4127 C.2       2 UNK         0.4993 
     31 O          28.4829    1.8280   -4.4862 O.2       2 UNK        -0.5286 
     32 CA         29.1736    0.1746   -2.9079 C.3       2 UNK         0.0209 
     33 CB         30.4404    0.8006   -2.3021 C.3       2 UNK        -0.1931 
     34 N          28.5774   -0.7354   -1.9247 N.am      2 UNK        -0.4546 
     35 C          27.5137   -1.5187   -2.1463 C.2       1 UNK         0.5154 
     36 O          26.8977   -1.5534   -3.2136 O.2       1 UNK        -0.5181 
     37 C          24.9107   -3.2219   -8.1353 C.2       5 UNK         0.5014 
     38 O          23.8559   -2.6904   -8.4939 O.2       5 UNK        -0.5248 
     39 N          25.8171   -3.7079   -8.9951 N.am      6 UNK        -0.4434 
     40 CA         25.7305   -3.6156  -10.4563 C.3       6 UNK         0.0363 
     41 CB         26.8246   -4.4923  -11.0868 C.3       6 UNK        -0.1936 
     42 C          25.8289   -2.1708  -10.9788 C.2       6 UNK         0.5081 
     43 O          25.1758   -1.8383  -11.9685 O.2       6 UNK        -0.5248 
     44 N          26.6239   -1.3410  -10.2963 N.am      7 UNK        -0.4718 
     45 CA         26.7679    0.0913  -10.5229 C.3       7 UNK         0.0273 
     46 CB         27.6926    0.3635  -11.7239 C.3       7 UNK        -0.1935 
     47 C          27.3332    0.7004   -9.2376 C.2       7 UNK         0.5018 
     48 O          28.2305    0.1040   -8.6343 O.2       7 UNK        -0.5186 
     49 N          26.8117    1.8696   -8.8466 N.am      8 UNK        -0.4240 
     50 CA         27.2474    2.5922   -7.6517 C.3       8 UNK         0.0235 
     51 CB         26.2556    3.7237   -7.3389 C.3       8 UNK        -0.2000 
     52 C          28.6717    3.1423   -7.8253 C.2       8 UNK         0.4941 
     53 O          28.9921    3.6762   -8.8900 O.2       8 UNK        -0.5273 
     54 N          29.4862    2.9995   -6.7725 N.am      9 UNK        -0.4262 
     55 CA         30.8932    3.4025   -6.6677 C.3       9 UNK         0.0264 
     56 CB         31.0333    4.9382   -6.7372 C.3       9 UNK        -0.1955 
     57 C          31.8398    2.6768   -7.6475 C.2       9 UNK         0.5031 
     58 O          32.9308    3.1841   -7.9162 O.2       9 UNK        -0.5390 
     59 N          31.4477    1.4856   -8.1303 N.am      10 UNK        -0.4204 
     60 CA         32.2223    0.6498   -9.0609 C.3       10 UNK         0.0237 
     61 CB         31.3907   -0.5809   -9.4569 C.3       10 UNK        -0.1985 
     62 C          33.6036    0.2111   -8.5375 C.2       10 UNK         0.4970 
     63 O          34.4951   -0.0571   -9.3439 O.2       10 UNK        -0.4914 
     64 N          33.7571    0.1621   -7.2094 N.am      11 UNK        -0.4285 
     65 CA         35.0270   -0.0881   -6.5137 C.3       11 UNK         0.1007 
     66 C          36.0070    1.1235   -6.5194 C.2       11 UNK         0.5703 
     67 N          35.6117    2.3134   -6.9600 N.am      11 UNK        -0.7361 
     68 O          37.1605    0.9763   -6.1220 O.2       11 UNK        -0.4986 
     69 C69        34.7881   -0.6080   -5.0716 C.3       12 UNK        -0.0947 
     70 S70        33.8641   -2.1804   -5.0374 S.3       12 UNK        -0.2240 
     71 C71        32.2196   -1.6107   -4.5141 C.3       12 UNK         0.0194 
     72 H72        23.1012   -1.0852    0.6560 H         1 UNK         0.0906 
     73 H73        22.9793   -0.3467   -0.9413 H         1 UNK         0.0906 
     74 H74        23.0105   -2.1043   -0.7837 H         1 UNK         0.0906 
     75 H75        25.0379   -3.0930   -1.0096 H         1 UNK         0.3140 
     76 H76        27.4484   -1.9496   -0.0425 H         1 UNK         0.1085 
     77 H77        26.8576   -4.4876   -0.4588 H         1 UNK         0.0836 
     78 H78        27.3958   -4.2168   -2.0933 H         1 UNK         0.0836 
     79 H79        29.3129   -6.0397   -1.8045 H         1 UNK         0.0731 
     80 H80        30.9012   -5.4981   -1.3278 H         1 UNK         0.0731 
     81 H81        31.5194   -3.0017   -2.2719 H         1 UNK         0.1312 
     82 H82        30.8007   -2.8146   -6.4940 H         1 UNK         0.1406 
     83 H83        28.8752   -5.8249   -4.1224 H         1 UNK         0.1631 
     84 H84        29.6061   -5.8909   -6.9421 H         1 UNK         0.0717 
     85 H85        29.2854   -4.2891   -7.5600 H         1 UNK         0.0717 
     86 H86        26.8745   -3.3329   -5.2145 H         1 UNK         0.0934 
     87 H87        27.3320   -2.8228   -6.8082 H         1 UNK         0.0934 
     88 H88        24.6958   -4.3046   -6.3282 H         1 UNK         0.0739 
     89 H89        23.7900   -2.6328   -5.2581 H         1 UNK         0.3093 
     90 H90        23.5509    0.5896   -5.5929 H         1 UNK         0.0818 
     91 H91        22.2950   -1.3181   -4.6124 H         1 UNK         0.0819 
     92 H92        23.5250   -1.5251   -3.3609 H         1 UNK         0.0819 
     93 H93        22.5275   -0.0756   -3.4031 H         1 UNK         0.0819 
     94 H94        25.8008    0.0830   -3.7305 H         1 UNK         0.3041 
     95 H95        26.6061    3.3796   -3.5940 H         1 UNK         0.0784 
     96 H96        24.8107    3.9510   -1.9878 H         1 UNK         0.0793 
     97 H97        25.0257    2.4235   -1.1469 H         1 UNK         0.0793 
     98 H98        26.3061    3.6365   -1.1242 H         1 UNK         0.0793 
     99 H99        27.0296    1.0980   -1.7840 H         1 UNK         0.3024 
    100 H100       29.4555   -0.4249   -3.7763 H         1 UNK         0.1171 
    101 H101       31.1244    0.0409   -1.9250 H         1 UNK         0.0786 
    102 H102       30.9809    1.3858   -3.0476 H         1 UNK         0.0786 
    103 H103       30.2013    1.4694   -1.4742 H         1 UNK         0.0786 
    104 H104       29.0204   -0.7674   -1.0175 H         1 UNK         0.2977 
    105 H105       26.6277   -4.1744   -8.6101 H         1 UNK         0.3127 
    106 H106       24.7582   -4.0100  -10.7595 H         1 UNK         0.0770 
    107 H107       27.8239   -4.1599  -10.8027 H         1 UNK         0.0814 
    108 H108       26.7686   -4.4608  -12.1759 H         1 UNK         0.0814 
    109 H109       26.7192   -5.5357  -10.7889 H         1 UNK         0.0814 
    110 H110       27.1103   -1.6784   -9.4748 H         1 UNK         0.2983 
    111 H111       25.7816    0.5190  -10.7171 H         1 UNK         0.0947 
    112 H112       27.8509    1.4342  -11.8598 H         1 UNK         0.0806 
    113 H113       27.2663   -0.0208  -12.6505 H         1 UNK         0.0806 
    114 H114       28.6713   -0.0977  -11.5904 H         1 UNK         0.0806 
    115 H115       26.1085    2.3155   -9.4168 H         1 UNK         0.3000 
    116 H116       27.2339    1.8861   -6.8180 H         1 UNK         0.0850 
    117 H117       26.5479    4.2550   -6.4321 H         1 UNK         0.0810 
    118 H118       25.2507    3.3346   -7.1721 H         1 UNK         0.0810 
    119 H119       26.2074    4.4553   -8.1465 H         1 UNK         0.0810 
    120 H120       29.1046    2.5471   -5.9376 H         1 UNK         0.3040 
    121 H121       31.2110    3.0933   -5.6709 H         1 UNK         0.0766 
    122 H122       30.8006    5.3213   -7.7311 H         1 UNK         0.0812 
    123 H123       32.0510    5.2509   -6.5001 H         1 UNK         0.0812 
    124 H124       30.3718    5.4297   -6.0239 H         1 UNK         0.0812 
    125 H125       30.5244    1.1516   -7.8857 H         1 UNK         0.3205 
    126 H126       32.3988    1.2447   -9.9593 H         1 UNK         0.0754 
    127 H127       31.9523   -1.2410  -10.1196 H         1 UNK         0.0769 
    128 H128       30.4873   -0.2888   -9.9906 H         1 UNK         0.0769 
    129 H129       31.0927   -1.1663   -8.5862 H         1 UNK         0.0769 
    130 H130       32.9732    0.4104   -6.6282 H         1 UNK         0.2981 
    131 H131       35.5446   -0.8797   -7.0591 H         1 UNK         0.0541 
    132 H132       36.2691    3.0766   -6.9566 H         1 UNK         0.3459 
    133 H133       34.6691    2.4683   -7.3032 H         1 UNK         0.3459 
    134 H134       34.2700    0.1420   -4.4714 H         1 UNK         0.0612 
    135 H135       35.7402   -0.7904   -4.5699 H         1 UNK         0.0612 
    136 H136       32.3145   -1.0981   -3.5574 H         1 UNK         0.0624 
    137 H137       31.8345   -0.8803   -5.2266 H         1 UNK         0.0624 
@<TRIPOS>BOND
     1    1    2 1    
     2    1   72 1    
     3    1   73 1    
     4    1   74 1    
     5    2    3 2    
     6    2    4 am   BACKBONE|DICT|INTERRES
     7    4    5 1    
     8    4   75 1    
     9    5    6 1    
    10    5   35 1    
    11    5   76 1    
    12    6    7 1    
    13    6   77 1    
    14    6   78 1    
    15    7    8 1    
    16    8    9 1    
    17    8   79 1    
    18    8   80 1    
    19    9   10 ar   
    20    9   14 ar   
    21   10   11 ar   
    22   10   81 1    
    23   11   12 ar   
    24   11   71 1    
    25   12   13 ar   
    26   12   82 1    
    27   13   14 ar   
    28   13   15 1    
    29   14   83 1    
    30   15   16 1    
    31   15   84 1    
    32   15   85 1    
    33   16   17 1    
    34   17   18 1    
    35   17   86 1    
    36   17   87 1    
    37   18   19 1    
    38   18   37 1    
    39   18   88 1    
    40   19   20 am   BACKBONE|DICT|INTERRES
    41   19   89 1    
    42   20   21 2    
    43   20   22 1    
    44   22   23 1    
    45   22   24 1    
    46   22   90 1    
    47   23   91 1    
    48   23   92 1    
    49   23   93 1    
    50   24   25 am   BACKBONE|DICT|INTERRES
    51   24   94 1    
    52   25   26 2    
    53   25   27 1    
    54   27   28 1    
    55   27   29 1    
    56   27   95 1    
    57   28   96 1    
    58   28   97 1    
    59   28   98 1    
    60   29   30 am   BACKBONE|DICT|INTERRES
    61   29   99 1    
    62   30   31 2    
    63   30   32 1    
    64   32   33 1    
    65   32   34 1    
    66   32  100 1    
    67   33  101 1    
    68   33  102 1    
    69   33  103 1    
    70   34   35 am   BACKBONE|DICT|INTERRES
    71   34  104 1    
    72   35   36 2    
    73   37   38 2    
    74   37   39 am   BACKBONE|DICT|INTERRES
    75   39   40 1    
    76   39  105 1    
    77   40   41 1    
    78   40   42 1    
    79   40  106 1    
    80   41  107 1    
    81   41  108 1    
    82   41  109 1    
    83   42   43 2    
    84   42   44 am   BACKBONE|DICT|INTERRES
    85   44   45 1    
    86   44  110 1    
    87   45   46 1    
    88   45   47 1    
    89   45  111 1    
    90   46  112 1    
    91   46  113 1    
    92   46  114 1    
    93   47   48 2    
    94   47   49 am   BACKBONE|DICT|INTERRES
    95   49   50 1    
    96   49  115 1    
    97   50   51 1    
    98   50   52 1    
    99   50  116 1    
   100   51  117 1    
   101   51  118 1    
   102   51  119 1    
   103   52   53 2    
   104   52   54 am   BACKBONE|DICT|INTERRES
   105   54   55 1    
   106   54  120 1    
   107   55   56 1    
   108   55   57 1    
   109   55  121 1    
   110   56  122 1    
   111   56  123 1    
   112   56  124 1    
   113   57   58 2    
   114   57   59 am   BACKBONE|DICT|INTERRES
   115   59   60 1    
   116   59  125 1    
   117   60   61 1    
   118   60   62 1    
   119   60  126 1    
   120   61  127 1    
   121   61  128 1    
   122   61  129 1    
   123   62   63 2    
   124   62   64 am   BACKBONE|DICT|INTERRES
   125   64   65 1    
   126   64  130 1    
   127   65   66 1    
   128   65   69 1    
   129   65  131 1    
   130   66   67 am   BACKBONE|DICT|INTERRES
   131   66   68 2    
   132   67  132 1    
   133   67  133 1    
   134   69   70 1    
   135   69  134 1    
   136   69  135 1    
   137   70   71 1    
   138   71  136 1    
   139   71  137 1    
@<TRIPOS>SUBSTRUCTURE
     1 UNK         1 GROUP             0       ****    0 ROOT    
