@<TRIPOS>MOLECULE
3R137
137   139    1
SMALL
USER_CHARGES


@<TRIPOS>ATOM
      1 CA         24.8045   -5.9960   -4.7834 C.3       0 UNK        -0.2020 
      2 C          25.3929   -5.1794   -3.6436 C.2       0 UNK         0.4855 
      3 O          24.6427   -4.5879   -2.8666 O.2       0 UNK        -0.5197 
      4 N          26.7288   -5.1338   -3.5383 N.am      1 UNK        -0.4892 
      5 CA         27.4633   -4.3827   -2.5125 C.3       1 UNK         0.0835 
      6 C6         28.9890   -4.6667   -2.5609 C.3       12 UNK        -0.0855 
      7 S7         29.7273   -4.8513   -0.9021 S.3       12 UNK        -0.2931 
      8 C8         30.0875   -3.1319   -0.3964 C.3       12 UNK         0.0378 
      9 C9         30.9848   -2.3565   -1.3575 C.ar      12 UNK        -0.0802 
     10 C10        32.1271   -2.9432   -1.9146 C.ar      12 UNK        -0.0944 
     11 C11        32.9526   -2.2158   -2.7765 C.ar      12 UNK        -0.0787 
     12 C12        32.6503   -0.8793   -3.0529 C.ar      12 UNK        -0.0862 
     13 C13        31.5132   -0.2797   -2.5064 C.ar      12 UNK        -0.0733 
     14 C14        30.6839   -1.0236   -1.6607 C.ar      12 UNK        -0.0832 
     15 C15        31.1943    1.1750   -2.8255 C.3       12 UNK         0.0240 
     16 S16        30.5876    1.3856   -4.5298 S.3       12 UNK        -0.2522 
     17 C17        28.9656    0.5661   -4.4197 C.3       12 UNK        -0.0967 
     18 CA         28.1543    0.6466   -5.7363 C.3       5 UNK         0.0660 
     19 N          27.2003   -0.4630   -5.8352 N.am      5 UNK        -0.4015 
     20 C          26.4025   -0.7230   -6.8810 C.2       4 UNK         0.4946 
     21 O          26.3501   -0.0343   -7.8977 O.2       4 UNK        -0.5353 
     22 CA         25.4594   -1.9252   -6.7457 C.3       4 UNK         0.0277 
     23 CB         26.2185   -3.2499   -6.9246 C.3       4 UNK        -0.1981 
     24 N          24.7630   -1.9025   -5.4591 N.am      4 UNK        -0.4209 
     25 C          23.7503   -1.0708   -5.1730 C.2       3 UNK         0.4942 
     26 O          23.2309   -0.3141   -5.9935 O.2       3 UNK        -0.5208 
     27 CA         23.2490   -1.0568   -3.7190 C.3       3 UNK         0.0250 
     28 CB         22.1467   -2.1080   -3.5147 C.3       3 UNK        -0.1990 
     29 N          24.3216   -1.2670   -2.7422 N.am      3 UNK        -0.4232 
     30 C          25.3132   -0.3920   -2.5152 C.2       2 UNK         0.4993 
     31 O          25.4215    0.6855   -3.0984 O.2       2 UNK        -0.5286 
     32 CA         26.4031   -0.8076   -1.5124 C.3       2 UNK         0.0209 
     33 CB         26.0046   -0.4140   -0.0819 C.3       2 UNK        -0.1931 
     34 N          26.7336   -2.2354   -1.5562 N.am      2 UNK        -0.4546 
     35 C          27.1817   -2.8748   -2.6450 C.2       1 UNK         0.5154 
     36 O          27.3523   -2.3264   -3.7363 O.2       1 UNK        -0.5181 
     37 C          27.4938    2.0307   -5.9272 C.2       5 UNK         0.5014 
     38 O          28.0696    2.8926   -6.5923 O.2       5 UNK        -0.5248 
     39 N          26.2807    2.2060   -5.3815 N.am      6 UNK        -0.4434 
     40 CA         25.4455    3.3947   -5.5674 C.3       6 UNK         0.0363 
     41 CB         24.2433    3.3247   -4.6122 C.3       6 UNK        -0.1936 
     42 C          24.9620    3.6001   -7.0157 C.2       6 UNK         0.5081 
     43 O          24.7369    4.7458   -7.4078 O.2       6 UNK        -0.5248 
     44 N          24.8015    2.5111   -7.7813 N.am      7 UNK        -0.4718 
     45 CA         24.4316    2.5530   -9.1969 C.3       7 UNK         0.0273 
     46 CB         23.7015    1.2580   -9.5917 C.3       7 UNK        -0.1935 
     47 C          25.6627    2.7962  -10.0829 C.2       7 UNK         0.5018 
     48 O          25.6181    3.6761  -10.9440 O.2       7 UNK        -0.5186 
     49 N          26.7416    2.0395   -9.8450 N.am      8 UNK        -0.4240 
     50 CA         28.0294    2.1843  -10.5180 C.3       8 UNK         0.0235 
     51 CB         27.9900    1.5343  -11.9145 C.3       8 UNK        -0.2000 
     52 C          29.1116    1.5437   -9.6465 C.2       8 UNK         0.4941 
     53 O          29.0268    0.3495   -9.3536 O.2       8 UNK        -0.5273 
     54 N          30.1380    2.3199   -9.2783 N.am      9 UNK        -0.4262 
     55 CA         31.2483    1.9043   -8.4128 C.3       9 UNK         0.0264 
     56 CB         31.8948    3.1564   -7.7924 C.3       9 UNK        -0.1955 
     57 C          32.2740    0.9914   -9.1187 C.2       9 UNK         0.5031 
     58 O          33.4805    1.2213   -9.0151 O.2       9 UNK        -0.5390 
     59 N          31.7839   -0.0500   -9.8049 N.am      10 UNK        -0.4204 
     60 CA         32.5728   -1.0550  -10.5295 C.3       10 UNK         0.0237 
     61 CB         31.6213   -1.9575  -11.3314 C.3       10 UNK        -0.1985 
     62 C          33.4864   -1.8995   -9.6211 C.2       10 UNK         0.4970 
     63 O          34.4978   -2.4198  -10.0930 O.2       10 UNK        -0.4914 
     64 N          33.1231   -1.9956   -8.3368 N.am      11 UNK        -0.4285 
     65 CA         33.9368   -2.5580   -7.2526 C.3       11 UNK         0.1007 
     66 C          35.2093   -1.7190   -6.9127 C.2       11 UNK         0.5703 
     67 N          35.3089   -0.4550   -7.3125 N.am      11 UNK        -0.7361 
     68 O          36.1389   -2.2307   -6.2945 O.2       11 UNK        -0.4986 
     69 C69        33.0365   -2.7976   -6.0122 C.3       12 UNK        -0.0947 
     70 S70        33.7106   -3.9753   -4.7909 S.3       12 UNK        -0.2240 
     71 C71        34.1693   -2.8748   -3.4111 C.3       12 UNK         0.0194 
     72 H72        24.2772   -6.8635   -4.3875 H         1 UNK         0.0906 
     73 H73        24.0917   -5.3946   -5.3471 H         1 UNK         0.0906 
     74 H74        25.5718   -6.3485   -5.4723 H         1 UNK         0.0906 
     75 H75        27.2961   -5.6186   -4.2189 H         1 UNK         0.3140 
     76 H76        27.0684   -4.7254   -1.5533 H         1 UNK         0.1085 
     77 H77        29.5398   -3.9261   -3.1454 H         1 UNK         0.0836 
     78 H78        29.1768   -5.6140   -3.0687 H         1 UNK         0.0836 
     79 H79        30.5770   -3.1585    0.5779 H         1 UNK         0.0731 
     80 H80        29.1444   -2.6079   -0.2421 H         1 UNK         0.0731 
     81 H81        32.3698   -3.9726   -1.6886 H         1 UNK         0.1312 
     82 H82        33.2896   -0.3062   -3.7108 H         1 UNK         0.1406 
     83 H83        29.8083   -0.5588   -1.2288 H         1 UNK         0.1631 
     84 H84        32.0960    1.7758   -2.6980 H         1 UNK         0.0717 
     85 H85        30.4597    1.5775   -2.1263 H         1 UNK         0.0717 
     86 H86        29.1667   -0.4771   -4.1720 H         1 UNK         0.0934 
     87 H87        28.4009    0.9741   -3.5795 H         1 UNK         0.0934 
     88 H88        28.8426    0.5056   -6.5711 H         1 UNK         0.0739 
     89 H89        27.1870   -1.1110   -5.0488 H         1 UNK         0.3093 
     90 H90        24.7172   -1.8556   -7.5444 H         1 UNK         0.0818 
     91 H91        26.7657   -3.2574   -7.8684 H         1 UNK         0.0819 
     92 H92        26.9435   -3.4215   -6.1290 H         1 UNK         0.0819 
     93 H93        25.5332   -4.0962   -6.9467 H         1 UNK         0.0819 
     94 H94        25.1602   -2.4530   -4.7104 H         1 UNK         0.3041 
     95 H95        22.8168   -0.0712   -3.5316 H         1 UNK         0.0784 
     96 H96        21.3178   -1.9411   -4.2042 H         1 UNK         0.0793 
     97 H97        22.5137   -3.1203   -3.6872 H         1 UNK         0.0793 
     98 H98        21.7397   -2.0659   -2.5043 H         1 UNK         0.0793 
     99 H99        24.3319   -2.1536   -2.2550 H         1 UNK         0.3024 
    100 H100       27.3063   -0.2547   -1.7765 H         1 UNK         0.1171 
    101 H101       26.8131   -0.6073    0.6235 H         1 UNK         0.0786 
    102 H102       25.7724    0.6504   -0.0210 H         1 UNK         0.0786 
    103 H103       25.1233   -0.9596    0.2579 H         1 UNK         0.0786 
    104 H104       26.5903   -2.7593   -0.7045 H         1 UNK         0.2977 
    105 H105       25.9080    1.4847   -4.7679 H         1 UNK         0.3127 
    106 H106       26.0454    4.2663   -5.2977 H         1 UNK         0.0770 
    107 H107       23.6310    2.4418   -4.8017 H         1 UNK         0.0814 
    108 H108       23.6013    4.1995   -4.7240 H         1 UNK         0.0814 
    109 H109       24.5654    3.2915   -3.5712 H         1 UNK         0.0814 
    110 H110       25.0618    1.6052   -7.4095 H         1 UNK         0.2983 
    111 H111       23.7376    3.3817   -9.3564 H         1 UNK         0.0947 
    112 H112       24.3393    0.3793   -9.4985 H         1 UNK         0.0806 
    113 H113       23.3648    1.3045  -10.6281 H         1 UNK         0.0806 
    114 H114       22.8204    1.0960   -8.9705 H         1 UNK         0.0806 
    115 H115       26.7000    1.3204   -9.1211 H         1 UNK         0.3000 
    116 H116       28.2496    3.2484  -10.6289 H         1 UNK         0.0850 
    117 H117       28.9618    1.6029  -12.4049 H         1 UNK         0.0810 
    118 H118       27.2650    2.0247  -12.5640 H         1 UNK         0.0810 
    119 H119       27.7263    0.4773  -11.8570 H         1 UNK         0.0810 
    120 H120       30.1547    3.2806   -9.5896 H         1 UNK         0.3040 
    121 H121       30.8333    1.3178   -7.5916 H         1 UNK         0.0766 
    122 H122       31.1616    3.7466   -7.2418 H         1 UNK         0.0812 
    123 H123       32.3469    3.7968   -8.5506 H         1 UNK         0.0812 
    124 H124       32.6781    2.8825   -7.0841 H         1 UNK         0.0812 
    125 H125       30.7710   -0.1594   -9.8051 H         1 UNK         0.3205 
    126 H126       33.2178   -0.5237  -11.2323 H         1 UNK         0.0754 
    127 H127       32.1770   -2.7010  -11.9048 H         1 UNK         0.0769 
    128 H128       31.0298   -1.3786  -12.0412 H         1 UNK         0.0769 
    129 H129       30.9310   -2.4955  -10.6801 H         1 UNK         0.0769 
    130 H130       32.2700   -1.5384   -8.0549 H         1 UNK         0.2981 
    131 H131       34.2923   -3.5293   -7.6013 H         1 UNK         0.0541 
    132 H132       36.1459    0.0590   -7.0892 H         1 UNK         0.3459 
    133 H133       34.5834   -0.0092   -7.8630 H         1 UNK         0.3459 
    134 H134       32.7828   -1.8484   -5.5429 H         1 UNK         0.0612 
    135 H135       32.0829   -3.2228   -6.3297 H         1 UNK         0.0612 
    136 H136       34.6990   -3.4591   -2.6575 H         1 UNK         0.0624 
    137 H137       34.8759   -2.1234   -3.7664 H         1 UNK         0.0624 
@<TRIPOS>BOND
     1    1    2 1    
     2    1   72 1    
     3    1   73 1    
     4    1   74 1    
     5    2    3 2    
     6    2    4 am   BACKBONE|DICT|INTERRES
     7    4    5 1    
     8    4   75 1    
     9    5    6 1    
    10    5   35 1    
    11    5   76 1    
    12    6    7 1    
    13    6   77 1    
    14    6   78 1    
    15    7    8 1    
    16    8    9 1    
    17    8   79 1    
    18    8   80 1    
    19    9   10 ar   
    20    9   14 ar   
    21   10   11 ar   
    22   10   81 1    
    23   11   12 ar   
    24   11   71 1    
    25   12   13 ar   
    26   12   82 1    
    27   13   14 ar   
    28   13   15 1    
    29   14   83 1    
    30   15   16 1    
    31   15   84 1    
    32   15   85 1    
    33   16   17 1    
    34   17   18 1    
    35   17   86 1    
    36   17   87 1    
    37   18   19 1    
    38   18   37 1    
    39   18   88 1    
    40   19   20 am   BACKBONE|DICT|INTERRES
    41   19   89 1    
    42   20   21 2    
    43   20   22 1    
    44   22   23 1    
    45   22   24 1    
    46   22   90 1    
    47   23   91 1    
    48   23   92 1    
    49   23   93 1    
    50   24   25 am   BACKBONE|DICT|INTERRES
    51   24   94 1    
    52   25   26 2    
    53   25   27 1    
    54   27   28 1    
    55   27   29 1    
    56   27   95 1    
    57   28   96 1    
    58   28   97 1    
    59   28   98 1    
    60   29   30 am   BACKBONE|DICT|INTERRES
    61   29   99 1    
    62   30   31 2    
    63   30   32 1    
    64   32   33 1    
    65   32   34 1    
    66   32  100 1    
    67   33  101 1    
    68   33  102 1    
    69   33  103 1    
    70   34   35 am   BACKBONE|DICT|INTERRES
    71   34  104 1    
    72   35   36 2    
    73   37   38 2    
    74   37   39 am   BACKBONE|DICT|INTERRES
    75   39   40 1    
    76   39  105 1    
    77   40   41 1    
    78   40   42 1    
    79   40  106 1    
    80   41  107 1    
    81   41  108 1    
    82   41  109 1    
    83   42   43 2    
    84   42   44 am   BACKBONE|DICT|INTERRES
    85   44   45 1    
    86   44  110 1    
    87   45   46 1    
    88   45   47 1    
    89   45  111 1    
    90   46  112 1    
    91   46  113 1    
    92   46  114 1    
    93   47   48 2    
    94   47   49 am   BACKBONE|DICT|INTERRES
    95   49   50 1    
    96   49  115 1    
    97   50   51 1    
    98   50   52 1    
    99   50  116 1    
   100   51  117 1    
   101   51  118 1    
   102   51  119 1    
   103   52   53 2    
   104   52   54 am   BACKBONE|DICT|INTERRES
   105   54   55 1    
   106   54  120 1    
   107   55   56 1    
   108   55   57 1    
   109   55  121 1    
   110   56  122 1    
   111   56  123 1    
   112   56  124 1    
   113   57   58 2    
   114   57   59 am   BACKBONE|DICT|INTERRES
   115   59   60 1    
   116   59  125 1    
   117   60   61 1    
   118   60   62 1    
   119   60  126 1    
   120   61  127 1    
   121   61  128 1    
   122   61  129 1    
   123   62   63 2    
   124   62   64 am   BACKBONE|DICT|INTERRES
   125   64   65 1    
   126   64  130 1    
   127   65   66 1    
   128   65   69 1    
   129   65  131 1    
   130   66   67 am   BACKBONE|DICT|INTERRES
   131   66   68 2    
   132   67  132 1    
   133   67  133 1    
   134   69   70 1    
   135   69  134 1    
   136   69  135 1    
   137   70   71 1    
   138   71  136 1    
   139   71  137 1    
@<TRIPOS>SUBSTRUCTURE
     1 UNK         1 GROUP             0       ****    0 ROOT    
