@<TRIPOS>MOLECULE
3R137
137   139    1
SMALL
USER_CHARGES


@<TRIPOS>ATOM
      1 CA         25.1019   -6.4362    0.4028 C.3       0 UNK        -0.2020 
      2 C          25.8090   -5.1448    0.0212 C.2       0 UNK         0.4855 
      3 O          25.7589   -4.1719    0.7744 O.2       0 UNK        -0.5197 
      4 N          26.4566   -5.1174   -1.1503 N.am      1 UNK        -0.4892 
      5 CA         27.2214   -3.9850   -1.6916 C.3       1 UNK         0.0835 
      6 C6         28.2962   -4.4703   -2.7060 C.3       12 UNK        -0.0855 
      7 S7         29.7787   -5.1011   -1.8492 S.3       12 UNK        -0.2931 
      8 C8         31.1313   -4.5598   -2.9621 C.3       12 UNK         0.0378 
      9 C9         31.2592   -3.0518   -3.2113 C.ar      12 UNK        -0.0802 
     10 C10        32.0107   -2.6215   -4.3098 C.ar      12 UNK        -0.0944 
     11 C11        32.1545   -1.2599   -4.5943 C.ar      12 UNK        -0.0787 
     12 C12        31.5130   -0.3154   -3.7891 C.ar      12 UNK        -0.0862 
     13 C13        30.7583   -0.7247   -2.6873 C.ar      12 UNK        -0.0733 
     14 C14        30.6606   -2.0887   -2.3879 C.ar      12 UNK        -0.0832 
     15 C15        30.0503    0.2996   -1.8120 C.3       12 UNK         0.0240 
     16 S16        28.2514    0.0266   -1.8168 S.3       12 UNK        -0.2522 
     17 C17        27.5958    1.4495   -2.7446 C.3       12 UNK        -0.0967 
     18 CA         27.6971    1.3633   -4.2926 C.3       5 UNK         0.0660 
     19 N          27.2744    0.0791   -4.8690 N.am      5 UNK        -0.4015 
     20 C          27.3646   -0.2290   -6.1750 C.2       4 UNK         0.4946 
     21 O          27.8786    0.5011   -7.0218 O.2       4 UNK        -0.5353 
     22 CA         26.7273   -1.5432   -6.6428 C.3       4 UNK         0.0277 
     23 CB         27.7226   -2.7078   -6.5170 C.3       4 UNK        -0.1981 
     24 N          25.4940   -1.8380   -5.9142 N.am      4 UNK        -0.4209 
     25 C          24.3326   -1.1963   -6.1044 C.2       3 UNK         0.4942 
     26 O          24.1660   -0.3233   -6.9557 O.2       3 UNK        -0.5208 
     27 CA         23.1710   -1.5596   -5.1621 C.3       3 UNK         0.0250 
     28 CB         22.4481   -2.8231   -5.6550 C.3       3 UNK        -0.1990 
     29 N          23.5894   -1.7433   -3.7693 N.am      3 UNK        -0.4232 
     30 C          24.1086   -0.7730   -3.0047 C.2       2 UNK         0.4993 
     31 O          24.2695    0.3867   -3.3868 O.2       2 UNK        -0.5286 
     32 CA         24.5643   -1.1634   -1.5879 C.3       2 UNK         0.0209 
     33 CB         23.3602   -1.2152   -0.6338 C.3       2 UNK        -0.1931 
     34 N          25.3428   -2.4055   -1.4526 N.am      2 UNK        -0.4546 
     35 C          26.3131   -2.8668   -2.2562 C.2       1 UNK         0.5154 
     36 O          26.5254   -2.4238   -3.3834 O.2       1 UNK        -0.5181 
     37 C          26.9129    2.5364   -4.9179 C.2       5 UNK         0.5014 
     38 O          27.5229    3.5171   -5.3448 O.2       5 UNK        -0.5248 
     39 N          25.5782    2.3992   -4.9719 N.am      6 UNK        -0.4434 
     40 CA         24.6523    3.3762   -5.5487 C.3       6 UNK         0.0363 
     41 CB         23.2072    2.9701   -5.2180 C.3       6 UNK        -0.1936 
     42 C          24.8284    3.5583   -7.0649 C.2       6 UNK         0.5081 
     43 O          24.7964    4.6924   -7.5432 O.2       6 UNK        -0.5248 
     44 N          25.0212    2.4493   -7.7927 N.am      7 UNK        -0.4718 
     45 CA         25.2660    2.4468   -9.2387 C.3       7 UNK         0.0273 
     46 CB         25.0308    1.0287   -9.7843 C.3       7 UNK        -0.1935 
     47 C          26.6736    2.9316   -9.6318 C.2       7 UNK         0.5018 
     48 O          26.8726    3.2900  -10.7932 O.2       7 UNK        -0.5186 
     49 N          27.6180    2.8970   -8.6788 N.am      8 UNK        -0.4240 
     50 CA         29.0648    3.0801   -8.8444 C.3       8 UNK         0.0235 
     51 CB         29.4054    4.5205   -9.2828 C.3       8 UNK        -0.2000 
     52 C          29.6668    1.9964   -9.7616 C.2       8 UNK         0.4941 
     53 O          30.4721    2.3027  -10.6436 O.2       8 UNK        -0.5273 
     54 N          29.2329    0.7487   -9.5460 N.am      9 UNK        -0.4262 
     55 CA         29.6648   -0.4348  -10.2851 C.3       9 UNK         0.0264 
     56 CB         28.4714   -1.3951  -10.4195 C.3       9 UNK        -0.1955 
     57 C          30.8259   -1.1179   -9.5507 C.2       9 UNK         0.5031 
     58 O          30.9071   -1.0244   -8.3246 O.2       9 UNK        -0.5390 
     59 N          31.6736   -1.8201  -10.3165 N.am      10 UNK        -0.4204 
     60 CA         32.8962   -2.5106   -9.8810 C.3       10 UNK         0.0237 
     61 CB         32.5629   -3.6790   -8.9226 C.3       10 UNK        -0.1985 
     62 C          33.9621   -1.5325   -9.3384 C.2       10 UNK         0.4970 
     63 O          33.9618   -0.3624   -9.7282 O.2       10 UNK        -0.4914 
     64 N          34.8758   -2.0337   -8.4935 N.am      11 UNK        -0.4285 
     65 CA         35.9992   -1.2892   -7.8885 C.3       11 UNK         0.1007 
     66 C          37.0593   -0.7662   -8.9100 C.2       11 UNK         0.5703 
     67 N          37.1420   -1.3190  -10.1148 N.am      11 UNK        -0.7361 
     68 O          37.8468    0.1256   -8.6013 O.2       11 UNK        -0.4986 
     69 C69        35.5255   -0.1977   -6.8810 C.3       12 UNK        -0.0947 
     70 S70        34.7728   -0.9057   -5.3786 S.3       12 UNK        -0.2240 
     71 C71        33.0019   -0.8131   -5.7743 C.3       12 UNK         0.0194 
     72 H72        24.0349   -6.2560    0.5309 H         1 UNK         0.0906 
     73 H73        25.2271   -7.2099   -0.3545 H         1 UNK         0.0906 
     74 H74        25.4986   -6.8161    1.3439 H         1 UNK         0.0906 
     75 H75        26.4454   -5.9434   -1.7321 H         1 UNK         0.3140 
     76 H76        27.7462   -3.5066   -0.8610 H         1 UNK         0.1085 
     77 H77        28.6224   -3.6650   -3.3630 H         1 UNK         0.0836 
     78 H78        27.8977   -5.2409   -3.3678 H         1 UNK         0.0836 
     79 H79        31.0006   -5.0709   -3.9174 H         1 UNK         0.0731 
     80 H80        32.0751   -4.9187   -2.5497 H         1 UNK         0.0731 
     81 H81        32.4966   -3.3488   -4.9461 H         1 UNK         0.1312 
     82 H82        31.6078    0.7373   -4.0176 H         1 UNK         0.1406 
     83 H83        30.0873   -2.3909   -1.5234 H         1 UNK         0.1631 
     84 H84        30.2790    1.3179   -2.1296 H         1 UNK         0.0717 
     85 H85        30.4179    0.2060   -0.7893 H         1 UNK         0.0717 
     86 H86        26.5532    1.5517   -2.4374 H         1 UNK         0.0934 
     87 H87        28.0917    2.3537   -2.3861 H         1 UNK         0.0934 
     88 H88        28.7479    1.4901   -4.5621 H         1 UNK         0.0739 
     89 H89        26.8882   -0.6095   -4.2310 H         1 UNK         0.3093 
     90 H90        26.4736   -1.4316   -7.6986 H         1 UNK         0.0818 
     91 H91        27.2930   -3.6409   -6.8811 H         1 UNK         0.0819 
     92 H92        28.6231   -2.5124   -7.1016 H         1 UNK         0.0819 
     93 H93        28.0407   -2.8612   -5.4869 H         1 UNK         0.0819 
     94 H94        25.5904   -2.4371   -5.1005 H         1 UNK         0.3041 
     95 H95        22.4605   -0.7304   -5.1867 H         1 UNK         0.0784 
     96 H96        22.1115   -2.7017   -6.6857 H         1 UNK         0.0793 
     97 H97        23.0971   -3.6993   -5.6250 H         1 UNK         0.0793 
     98 H98        21.5660   -3.0366   -5.0511 H         1 UNK         0.0793 
     99 H99        23.5159   -2.6723   -3.3808 H         1 UNK         0.3024 
    100 H100       25.2198   -0.3596   -1.2476 H         1 UNK         0.1171 
    101 H101       23.6800   -1.3252    0.4027 H         1 UNK         0.0786 
    102 H102       22.7717   -0.2983   -0.6931 H         1 UNK         0.0786 
    103 H103       22.6952   -2.0471   -0.8686 H         1 UNK         0.0786 
    104 H104       25.2721   -2.8730   -0.5524 H         1 UNK         0.2977 
    105 H105       25.1551    1.5763   -4.5452 H         1 UNK         0.3127 
    106 H106       24.8519    4.3398   -5.0751 H         1 UNK         0.0770 
    107 H107       22.9588    1.9919   -5.6322 H         1 UNK         0.0814 
    108 H108       22.4952    3.6892   -5.6250 H         1 UNK         0.0814 
    109 H109       23.0448    2.9261   -4.1409 H         1 UNK         0.0814 
    110 H110       24.9651    1.5431   -7.3374 H         1 UNK         0.2983 
    111 H111       24.5464    3.1193   -9.7109 H         1 UNK         0.0947 
    112 H112       25.7186    0.3089   -9.3391 H         1 UNK         0.0806 
    113 H113       25.1763    0.9939  -10.8649 H         1 UNK         0.0806 
    114 H114       24.0144    0.6894   -9.5836 H         1 UNK         0.0806 
    115 H115       27.3401    2.5328   -7.7750 H         1 UNK         0.3000 
    116 H116       29.5034    2.9221   -7.8576 H         1 UNK         0.0850 
    117 H117       28.9637    5.2538   -8.6081 H         1 UNK         0.0810 
    118 H118       29.0509    4.7347  -10.2913 H         1 UNK         0.0810 
    119 H119       30.4838    4.6826   -9.2780 H         1 UNK         0.0810 
    120 H120       28.6692    0.5817   -8.7140 H         1 UNK         0.3040 
    121 H121       29.9942   -0.1438  -11.2850 H         1 UNK         0.0766 
    122 H122       28.7401   -2.2753  -11.0047 H         1 UNK         0.0812 
    123 H123       27.6311   -0.9155  -10.9220 H         1 UNK         0.0812 
    124 H124       28.1252   -1.7448   -9.4472 H         1 UNK         0.0812 
    125 H125       31.5200   -1.8124  -11.3154 H         1 UNK         0.3205 
    126 H126       33.3276   -2.9444  -10.7842 H         1 UNK         0.0754 
    127 H127       33.4262   -4.3248   -8.7597 H         1 UNK         0.0769 
    128 H128       31.7750   -4.3093   -9.3351 H         1 UNK         0.0769 
    129 H129       32.2234   -3.3283   -7.9479 H         1 UNK         0.0769 
    130 H130       34.8178   -3.0097   -8.2438 H         1 UNK         0.2981 
    131 H131       36.5530   -2.0312   -7.3124 H         1 UNK         0.0541 
    132 H132       37.8370   -0.9842  -10.7634 H         1 UNK         0.3459 
    133 H133       36.5188   -2.0635  -10.3818 H         1 UNK         0.3459 
    134 H134       36.3692    0.4001   -6.5330 H         1 UNK         0.0612 
    135 H135       34.8383    0.5071   -7.3507 H         1 UNK         0.0612 
    136 H136       32.7966   -1.4564   -6.6268 H         1 UNK         0.0624 
    137 H137       32.7408    0.2021   -6.0768 H         1 UNK         0.0624 
@<TRIPOS>BOND
     1    1    2 1    
     2    1   72 1    
     3    1   73 1    
     4    1   74 1    
     5    2    3 2    
     6    2    4 am   BACKBONE|DICT|INTERRES
     7    4    5 1    
     8    4   75 1    
     9    5    6 1    
    10    5   35 1    
    11    5   76 1    
    12    6    7 1    
    13    6   77 1    
    14    6   78 1    
    15    7    8 1    
    16    8    9 1    
    17    8   79 1    
    18    8   80 1    
    19    9   10 ar   
    20    9   14 ar   
    21   10   11 ar   
    22   10   81 1    
    23   11   12 ar   
    24   11   71 1    
    25   12   13 ar   
    26   12   82 1    
    27   13   14 ar   
    28   13   15 1    
    29   14   83 1    
    30   15   16 1    
    31   15   84 1    
    32   15   85 1    
    33   16   17 1    
    34   17   18 1    
    35   17   86 1    
    36   17   87 1    
    37   18   19 1    
    38   18   37 1    
    39   18   88 1    
    40   19   20 am   BACKBONE|DICT|INTERRES
    41   19   89 1    
    42   20   21 2    
    43   20   22 1    
    44   22   23 1    
    45   22   24 1    
    46   22   90 1    
    47   23   91 1    
    48   23   92 1    
    49   23   93 1    
    50   24   25 am   BACKBONE|DICT|INTERRES
    51   24   94 1    
    52   25   26 2    
    53   25   27 1    
    54   27   28 1    
    55   27   29 1    
    56   27   95 1    
    57   28   96 1    
    58   28   97 1    
    59   28   98 1    
    60   29   30 am   BACKBONE|DICT|INTERRES
    61   29   99 1    
    62   30   31 2    
    63   30   32 1    
    64   32   33 1    
    65   32   34 1    
    66   32  100 1    
    67   33  101 1    
    68   33  102 1    
    69   33  103 1    
    70   34   35 am   BACKBONE|DICT|INTERRES
    71   34  104 1    
    72   35   36 2    
    73   37   38 2    
    74   37   39 am   BACKBONE|DICT|INTERRES
    75   39   40 1    
    76   39  105 1    
    77   40   41 1    
    78   40   42 1    
    79   40  106 1    
    80   41  107 1    
    81   41  108 1    
    82   41  109 1    
    83   42   43 2    
    84   42   44 am   BACKBONE|DICT|INTERRES
    85   44   45 1    
    86   44  110 1    
    87   45   46 1    
    88   45   47 1    
    89   45  111 1    
    90   46  112 1    
    91   46  113 1    
    92   46  114 1    
    93   47   48 2    
    94   47   49 am   BACKBONE|DICT|INTERRES
    95   49   50 1    
    96   49  115 1    
    97   50   51 1    
    98   50   52 1    
    99   50  116 1    
   100   51  117 1    
   101   51  118 1    
   102   51  119 1    
   103   52   53 2    
   104   52   54 am   BACKBONE|DICT|INTERRES
   105   54   55 1    
   106   54  120 1    
   107   55   56 1    
   108   55   57 1    
   109   55  121 1    
   110   56  122 1    
   111   56  123 1    
   112   56  124 1    
   113   57   58 2    
   114   57   59 am   BACKBONE|DICT|INTERRES
   115   59   60 1    
   116   59  125 1    
   117   60   61 1    
   118   60   62 1    
   119   60  126 1    
   120   61  127 1    
   121   61  128 1    
   122   61  129 1    
   123   62   63 2    
   124   62   64 am   BACKBONE|DICT|INTERRES
   125   64   65 1    
   126   64  130 1    
   127   65   66 1    
   128   65   69 1    
   129   65  131 1    
   130   66   67 am   BACKBONE|DICT|INTERRES
   131   66   68 2    
   132   67  132 1    
   133   67  133 1    
   134   69   70 1    
   135   69  134 1    
   136   69  135 1    
   137   70   71 1    
   138   71  136 1    
   139   71  137 1    
@<TRIPOS>SUBSTRUCTURE
     1 UNK         1 GROUP             0       ****    0 ROOT    
