@<TRIPOS>MOLECULE
3R137
137   139    1
SMALL
USER_CHARGES


@<TRIPOS>ATOM
      1 CA         22.8566   -3.7988   -7.1601 C.3       0 UNK        -0.2020 
      2 C          23.5069   -3.4406   -5.8332 C.2       0 UNK         0.4855 
      3 O          23.7305   -2.2619   -5.5636 O.2       0 UNK        -0.5197 
      4 N          23.7859   -4.4455   -4.9889 N.am      1 UNK        -0.4892 
      5 CA         24.4900   -4.3515   -3.6954 C.3       1 UNK         0.0835 
      6 C6         25.9883   -3.9608   -3.8725 C.3       12 UNK        -0.0855 
      7 S7         27.0741   -4.8366   -2.6943 S.3       12 UNK        -0.2931 
      8 C8         28.3224   -5.5905   -3.7878 C.3       12 UNK         0.0378 
      9 C9         29.4524   -4.6204   -4.1036 C.ar      12 UNK        -0.0802 
     10 C10        29.5971   -4.0732   -5.3827 C.ar      12 UNK        -0.0944 
     11 C11        30.6500   -3.1963   -5.6751 C.ar      12 UNK        -0.0787 
     12 C12        31.5653   -2.8783   -4.6613 C.ar      12 UNK        -0.0862 
     13 C13        31.4033   -3.3820   -3.3674 C.ar      12 UNK        -0.0733 
     14 C14        30.3602   -4.2707   -3.1015 C.ar      12 UNK        -0.0832 
     15 C15        32.3107   -2.9169   -2.2378 C.3       12 UNK         0.0240 
     16 S16        31.4360   -1.7700   -1.1170 S.3       12 UNK        -0.2522 
     17 C17        31.2278   -0.2829   -2.1598 C.3       12 UNK        -0.0967 
     18 CA         29.9158   -0.2946   -2.9931 C.3       5 UNK         0.0660 
     19 N          28.6958   -0.4731   -2.2027 N.am      5 UNK        -0.4015 
     20 C          28.0940    0.4222   -1.4119 C.2       4 UNK         0.4946 
     21 O          28.5364    1.5441   -1.1563 O.2       4 UNK        -0.5353 
     22 CA         26.7254   -0.0133   -0.8562 C.3       4 UNK         0.0277 
     23 CB         26.5358    0.4496    0.5991 C.3       4 UNK        -0.1981 
     24 N          25.5899    0.4591   -1.6588 N.am      4 UNK        -0.4209 
     25 C          25.4149    0.3206   -2.9819 C.2       3 UNK         0.4942 
     26 O          26.2391   -0.1839   -3.7473 O.2       3 UNK        -0.5208 
     27 CA         24.0440    0.7499   -3.5248 C.3       3 UNK         0.0250 
     28 CB         24.0958    1.1485   -5.0111 C.3       3 UNK        -0.1990 
     29 N          23.1390   -0.3843   -3.3684 N.am      3 UNK        -0.4232 
     30 C          22.4475   -0.6586   -2.2519 C.2       2 UNK         0.4993 
     31 O          22.3530    0.1189   -1.3010 O.2       2 UNK        -0.5286 
     32 CA         21.7888   -2.0488   -2.1543 C.3       2 UNK         0.0209 
     33 CB         20.3352   -1.9954   -2.6512 C.3       2 UNK        -0.1931 
     34 N          22.5207   -3.0756   -2.9024 N.am      2 UNK        -0.4546 
     35 C          23.7740   -3.4738   -2.6338 C.2       1 UNK         0.5154 
     36 O          24.3640   -3.1540   -1.6006 O.2       1 UNK        -0.5181 
     37 C          29.8249    0.8588   -4.0179 C.2       5 UNK         0.5014 
     38 O          30.8280    1.5166   -4.2955 O.2       5 UNK        -0.5248 
     39 N          28.6304    1.0626   -4.5869 N.am      6 UNK        -0.4434 
     40 CA         28.3465    2.0364   -5.6421 C.3       6 UNK         0.0363 
     41 CB         27.7054    3.2890   -5.0165 C.3       6 UNK        -0.1936 
     42 C          27.4768    1.4128   -6.7492 C.2       6 UNK         0.5081 
     43 O          26.8392    2.1423   -7.5087 O.2       6 UNK        -0.5248 
     44 N          27.4607    0.0737   -6.8258 N.am      7 UNK        -0.4718 
     45 CA         26.6705   -0.7160   -7.7759 C.3       7 UNK         0.0273 
     46 CB         26.6785   -2.1811   -7.3170 C.3       7 UNK        -0.1935 
     47 C          27.1543   -0.6147   -9.2338 C.2       7 UNK         0.5018 
     48 O          26.3815   -0.9106  -10.1461 O.2       7 UNK        -0.5186 
     49 N          28.4130   -0.2098   -9.4274 N.am      8 UNK        -0.4240 
     50 CA         29.0481    0.0320  -10.7155 C.3       8 UNK         0.0235 
     51 CB         29.7800   -1.2405  -11.1769 C.3       8 UNK        -0.2000 
     52 C          30.0324    1.1881  -10.5323 C.2       8 UNK         0.4941 
     53 O          30.5853    1.3409   -9.4400 O.2       8 UNK        -0.5273 
     54 N          30.2749    1.9516  -11.6067 N.am      9 UNK        -0.4262 
     55 CA         31.1998    3.0934  -11.6257 C.3       9 UNK         0.0264 
     56 CB         31.1174    3.8001  -12.9883 C.3       9 UNK        -0.1955 
     57 C          32.6563    2.7151  -11.3008 C.2       9 UNK         0.5031 
     58 O          33.3678    3.5124  -10.6883 O.2       9 UNK        -0.5390 
     59 N          33.0533    1.4881  -11.6682 N.am      10 UNK        -0.4204 
     60 CA         34.3506    0.8848  -11.3526 C.3       10 UNK         0.0237 
     61 CB         34.4728   -0.4573  -12.0932 C.3       10 UNK        -0.1985 
     62 C          34.6016    0.6885   -9.8448 C.2       10 UNK         0.4970 
     63 O          35.7640    0.6347   -9.4409 O.2       10 UNK        -0.4914 
     64 N          33.5297    0.5938   -9.0461 N.am      11 UNK        -0.4285 
     65 CA         33.5914    0.5187   -7.5796 C.3       11 UNK         0.1007 
     66 C          33.7551    1.9060   -6.8916 C.2       11 UNK         0.5703 
     67 N          33.6732    3.0266   -7.6026 N.am      11 UNK        -0.7361 
     68 O          34.0005    1.9662   -5.6896 O.2       11 UNK        -0.4986 
     69 C69        32.3968   -0.2814   -6.9953 C.3       12 UNK        -0.0947 
     70 S70        32.3756   -2.0054   -7.6035 S.3       12 UNK        -0.2240 
     71 C71        30.7260   -2.5851   -7.0780 C.3       12 UNK         0.0194 
     72 H72        21.8750   -3.3318   -7.2341 H         1 UNK         0.0906 
     73 H73        23.4683   -3.4357   -7.9853 H         1 UNK         0.0906 
     74 H74        22.7321   -4.8749   -7.2780 H         1 UNK         0.0906 
     75 H75        23.5371   -5.3871   -5.2626 H         1 UNK         0.3140 
     76 H76        24.4482   -5.3649   -3.2925 H         1 UNK         0.1085 
     77 H77        26.3211   -4.2066   -4.8813 H         1 UNK         0.0836 
     78 H78        26.1388   -2.8839   -3.7757 H         1 UNK         0.0836 
     79 H79        28.7403   -6.4643   -3.2856 H         1 UNK         0.0731 
     80 H80        27.8526   -5.9650   -4.6986 H         1 UNK         0.0731 
     81 H81        28.8847   -4.3318   -6.1538 H         1 UNK         0.1312 
     82 H82        32.3813   -2.1990   -4.8500 H         1 UNK         0.1406 
     83 H83        30.2329   -4.6643   -2.1018 H         1 UNK         0.1631 
     84 H84        33.2104   -2.4368   -2.6259 H         1 UNK         0.0717 
     85 H85        32.6475   -3.7827   -1.6659 H         1 UNK         0.0717 
     86 H86        31.2498    0.5956   -1.5127 H         1 UNK         0.0934 
     87 H87        32.1003   -0.1983   -2.8105 H         1 UNK         0.0934 
     88 H88        29.9295   -1.1778   -3.6226 H         1 UNK         0.0739 
     89 H89        28.2143   -1.3465   -2.3643 H         1 UNK         0.3093 
     90 H90        26.6862   -1.1051   -0.8611 H         1 UNK         0.0818 
     91 H91        25.6218    0.0407    1.0306 H         1 UNK         0.0819 
     92 H92        27.3649    0.1171    1.2252 H         1 UNK         0.0819 
     93 H93        26.4864    1.5367    0.6746 H         1 UNK         0.0819 
     94 H94        24.8216    0.8542   -1.1341 H         1 UNK         0.3041 
     95 H95        23.6829    1.6082   -2.9540 H         1 UNK         0.0784 
     96 H96        23.1082    1.4241   -5.3807 H         1 UNK         0.0793 
     97 H97        24.7495    2.0065   -5.1645 H         1 UNK         0.0793 
     98 H98        24.4697    0.3383   -5.6380 H         1 UNK         0.0793 
     99 H99        23.2174   -1.1023   -4.0855 H         1 UNK         0.3024 
    100 H100       21.7868   -2.3358   -1.1003 H         1 UNK         0.1171 
    101 H101       20.2784   -1.7276   -3.7071 H         1 UNK         0.0786 
    102 H102       19.7608   -1.2531   -2.0950 H         1 UNK         0.0786 
    103 H103       19.8349   -2.9550   -2.5194 H         1 UNK         0.0786 
    104 H104       22.1127   -3.3852   -3.7726 H         1 UNK         0.2977 
    105 H105       27.8294    0.5124   -4.2717 H         1 UNK         0.3127 
    106 H106       29.2759    2.3353   -6.1318 H         1 UNK         0.0770 
    107 H107       26.7749    3.0502   -4.5022 H         1 UNK         0.0814 
    108 H108       27.4822    4.0418   -5.7734 H         1 UNK         0.0814 
    109 H109       28.3756    3.7509   -4.2913 H         1 UNK         0.0814 
    110 H110       28.0017   -0.4455   -6.1511 H         1 UNK         0.2983 
    111 H111       25.6420   -0.3499   -7.7444 H         1 UNK         0.0947 
    112 H112       26.0067   -2.7850   -7.9280 H         1 UNK         0.0806 
    113 H113       26.3446   -2.2665   -6.2839 H         1 UNK         0.0806 
    114 H114       27.6714   -2.6237   -7.3897 H         1 UNK         0.0806 
    115 H115       28.9640    0.0845   -8.6314 H         1 UNK         0.3000 
    116 H116       28.2956    0.3196  -11.4532 H         1 UNK         0.0850 
    117 H117       30.5512   -1.5420  -10.4660 H         1 UNK         0.0810 
    118 H118       29.0878   -2.0750  -11.2904 H         1 UNK         0.0810 
    119 H119       30.2642   -1.0888  -12.1423 H         1 UNK         0.0810 
    120 H120       29.7834    1.7536  -12.4672 H         1 UNK         0.3040 
    121 H121       30.8695    3.7950  -10.8566 H         1 UNK         0.0766 
    122 H122       30.1086    4.1618  -13.1883 H         1 UNK         0.0812 
    123 H123       31.4070    3.1392  -13.8064 H         1 UNK         0.0812 
    124 H124       31.7808    4.6658  -13.0189 H         1 UNK         0.0812 
    125 H125       32.3951    0.9106  -12.1700 H         1 UNK         0.3205 
    126 H126       35.1267    1.5563  -11.7257 H         1 UNK         0.0754 
    127 H127       35.4425   -0.9204  -11.9046 H         1 UNK         0.0769 
    128 H128       34.3838   -0.3265  -13.1719 H         1 UNK         0.0769 
    129 H129       33.7065   -1.1655  -11.7743 H         1 UNK         0.0769 
    130 H130       32.6000    0.6940   -9.4350 H         1 UNK         0.2981 
    131 H131       34.4941   -0.0343   -7.3128 H         1 UNK         0.0541 
    132 H132       33.7960    3.9106   -7.1358 H         1 UNK         0.3459 
    133 H133       33.5083    3.0044   -8.6008 H         1 UNK         0.3459 
    134 H134       31.4525    0.2025   -7.2470 H         1 UNK         0.0612 
    135 H135       32.4462   -0.2932   -5.9067 H         1 UNK         0.0612 
    136 H136       30.4002   -3.3285   -7.8071 H         1 UNK         0.0624 
    137 H137       30.0165   -1.7602   -7.1463 H         1 UNK         0.0624 
@<TRIPOS>BOND
     1    1    2 1    
     2    1   72 1    
     3    1   73 1    
     4    1   74 1    
     5    2    3 2    
     6    2    4 am   BACKBONE|DICT|INTERRES
     7    4    5 1    
     8    4   75 1    
     9    5    6 1    
    10    5   35 1    
    11    5   76 1    
    12    6    7 1    
    13    6   77 1    
    14    6   78 1    
    15    7    8 1    
    16    8    9 1    
    17    8   79 1    
    18    8   80 1    
    19    9   10 ar   
    20    9   14 ar   
    21   10   11 ar   
    22   10   81 1    
    23   11   12 ar   
    24   11   71 1    
    25   12   13 ar   
    26   12   82 1    
    27   13   14 ar   
    28   13   15 1    
    29   14   83 1    
    30   15   16 1    
    31   15   84 1    
    32   15   85 1    
    33   16   17 1    
    34   17   18 1    
    35   17   86 1    
    36   17   87 1    
    37   18   19 1    
    38   18   37 1    
    39   18   88 1    
    40   19   20 am   BACKBONE|DICT|INTERRES
    41   19   89 1    
    42   20   21 2    
    43   20   22 1    
    44   22   23 1    
    45   22   24 1    
    46   22   90 1    
    47   23   91 1    
    48   23   92 1    
    49   23   93 1    
    50   24   25 am   BACKBONE|DICT|INTERRES
    51   24   94 1    
    52   25   26 2    
    53   25   27 1    
    54   27   28 1    
    55   27   29 1    
    56   27   95 1    
    57   28   96 1    
    58   28   97 1    
    59   28   98 1    
    60   29   30 am   BACKBONE|DICT|INTERRES
    61   29   99 1    
    62   30   31 2    
    63   30   32 1    
    64   32   33 1    
    65   32   34 1    
    66   32  100 1    
    67   33  101 1    
    68   33  102 1    
    69   33  103 1    
    70   34   35 am   BACKBONE|DICT|INTERRES
    71   34  104 1    
    72   35   36 2    
    73   37   38 2    
    74   37   39 am   BACKBONE|DICT|INTERRES
    75   39   40 1    
    76   39  105 1    
    77   40   41 1    
    78   40   42 1    
    79   40  106 1    
    80   41  107 1    
    81   41  108 1    
    82   41  109 1    
    83   42   43 2    
    84   42   44 am   BACKBONE|DICT|INTERRES
    85   44   45 1    
    86   44  110 1    
    87   45   46 1    
    88   45   47 1    
    89   45  111 1    
    90   46  112 1    
    91   46  113 1    
    92   46  114 1    
    93   47   48 2    
    94   47   49 am   BACKBONE|DICT|INTERRES
    95   49   50 1    
    96   49  115 1    
    97   50   51 1    
    98   50   52 1    
    99   50  116 1    
   100   51  117 1    
   101   51  118 1    
   102   51  119 1    
   103   52   53 2    
   104   52   54 am   BACKBONE|DICT|INTERRES
   105   54   55 1    
   106   54  120 1    
   107   55   56 1    
   108   55   57 1    
   109   55  121 1    
   110   56  122 1    
   111   56  123 1    
   112   56  124 1    
   113   57   58 2    
   114   57   59 am   BACKBONE|DICT|INTERRES
   115   59   60 1    
   116   59  125 1    
   117   60   61 1    
   118   60   62 1    
   119   60  126 1    
   120   61  127 1    
   121   61  128 1    
   122   61  129 1    
   123   62   63 2    
   124   62   64 am   BACKBONE|DICT|INTERRES
   125   64   65 1    
   126   64  130 1    
   127   65   66 1    
   128   65   69 1    
   129   65  131 1    
   130   66   67 am   BACKBONE|DICT|INTERRES
   131   66   68 2    
   132   67  132 1    
   133   67  133 1    
   134   69   70 1    
   135   69  134 1    
   136   69  135 1    
   137   70   71 1    
   138   71  136 1    
   139   71  137 1    
@<TRIPOS>SUBSTRUCTURE
     1 UNK         1 GROUP             0       ****    0 ROOT    
