@<TRIPOS>MOLECULE
3R137
137   139    1
SMALL
USER_CHARGES


@<TRIPOS>ATOM
      1 CA         24.7315   -5.7078   -6.2006 C.3       0 UNK        -0.2020 
      2 C          24.9461   -5.2507   -4.7662 C.2       0 UNK         0.4855 
      3 O          24.0077   -4.7622   -4.1356 O.2       0 UNK        -0.5197 
      4 N          26.1771   -5.3903   -4.2549 N.am      1 UNK        -0.4892 
      5 CA         26.6203   -4.9701   -2.9194 C.3       1 UNK         0.0835 
      6 C6         28.1075   -5.3434   -2.6520 C.3       12 UNK        -0.0855 
      7 S7         29.2693   -4.9589   -4.0192 S.3       12 UNK        -0.2931 
      8 C8         30.8361   -4.6679   -3.1364 C.3       12 UNK         0.0378 
      9 C9         31.1679   -3.1856   -3.0125 C.ar      12 UNK        -0.0802 
     10 C10        32.0573   -2.5864   -3.9126 C.ar      12 UNK        -0.0944 
     11 C11        32.4077   -1.2387   -3.7769 C.ar      12 UNK        -0.0787 
     12 C12        31.8696   -0.4933   -2.7273 C.ar      12 UNK        -0.0862 
     13 C13        30.9583   -1.0693   -1.8395 C.ar      12 UNK        -0.0733 
     14 C14        30.6145   -2.4184   -1.9822 C.ar      12 UNK        -0.0832 
     15 C15        30.3377   -0.2211   -0.7387 C.3       12 UNK         0.0240 
     16 S16        29.4089    1.1968   -1.4126 S.3       12 UNK        -0.2522 
     17 C17        28.1552    0.3572   -2.4354 C.3       12 UNK        -0.0967 
     18 CA         28.3123    0.6294   -3.9568 C.3       5 UNK         0.0660 
     19 N          27.6634   -0.4130   -4.7554 N.am      5 UNK        -0.4015 
     20 C          27.6436   -0.5128   -6.0918 C.2       4 UNK         0.4946 
     21 O          28.2895    0.2040   -6.8518 O.2       4 UNK        -0.5353 
     22 CA         26.7010   -1.5611   -6.7021 C.3       4 UNK         0.0277 
     23 CB         27.4023   -2.9160   -6.8574 C.3       4 UNK        -0.1981 
     24 N          25.4706   -1.7176   -5.9270 N.am      4 UNK        -0.4209 
     25 C          24.4958   -0.7990   -5.8729 C.2       3 UNK         0.4942 
     26 O          24.5157    0.2597   -6.5012 O.2       3 UNK        -0.5208 
     27 CA         23.3252   -1.0960   -4.9226 C.3       3 UNK         0.0250 
     28 CB         22.3010   -2.0266   -5.5909 C.3       3 UNK        -0.1990 
     29 N          23.7785   -1.6781   -3.6560 N.am      3 UNK        -0.4232 
     30 C          24.4622   -0.9900   -2.7291 C.2       2 UNK         0.4993 
     31 O          24.7367    0.2061   -2.8360 O.2       2 UNK        -0.5286 
     32 CA         24.9718   -1.7697   -1.5015 C.3       2 UNK         0.0209 
     33 CB         23.9033   -1.7899   -0.3973 C.3       2 UNK        -0.1931 
     34 N          25.3999   -3.1437   -1.7954 N.am      2 UNK        -0.4546 
     35 C          26.3477   -3.4718   -2.6852 C.2       1 UNK         0.5154 
     36 O          26.9574   -2.6406   -3.3529 O.2       1 UNK        -0.5181 
     37 C          27.7760    2.0256   -4.3274 C.2       5 UNK         0.5014 
     38 O          28.5642    2.9141   -4.6524 O.2       5 UNK        -0.5248 
     39 N          26.4420    2.1794   -4.2986 N.am      6 UNK        -0.4434 
     40 CA         25.7346    3.4166   -4.6386 C.3       6 UNK         0.0363 
     41 CB         24.2396    3.2570   -4.3195 C.3       6 UNK        -0.1936 
     42 C          25.9351    3.8508   -6.1004 C.2       6 UNK         0.5081 
     43 O          26.1290    5.0394   -6.3571 O.2       6 UNK        -0.5248 
     44 N          25.9010    2.8850   -7.0280 N.am      7 UNK        -0.4718 
     45 CA         26.1391    3.1073   -8.4572 C.3       7 UNK         0.0273 
     46 CB         25.5604    1.9179   -9.2414 C.3       7 UNK        -0.1935 
     47 C          27.6242    3.3047   -8.8184 C.2       7 UNK         0.5018 
     48 O          27.9080    3.8104   -9.9047 O.2       7 UNK        -0.5186 
     49 N          28.5315    2.8566   -7.9366 N.am      8 UNK        -0.4240 
     50 CA         29.9778    2.6815   -8.1358 C.3       8 UNK         0.0235 
     51 CB         30.6879    4.0372   -8.3290 C.3       8 UNK        -0.2000 
     52 C          30.3056    1.6626   -9.2499 C.2       8 UNK         0.4941 
     53 O          31.3503    1.7646   -9.8942 O.2       8 UNK        -0.5273 
     54 N          29.4012    0.6958   -9.4602 N.am      9 UNK        -0.4262 
     55 CA         29.4355   -0.2781  -10.5529 C.3       9 UNK         0.0264 
     56 CB         28.0351   -0.8839  -10.7401 C.3       9 UNK        -0.1955 
     57 C          30.4776   -1.3825  -10.3345 C.2       9 UNK         0.5031 
     58 O          31.1276   -1.8022  -11.2923 O.2       9 UNK        -0.5390 
     59 N          30.6330   -1.8165   -9.0774 N.am      10 UNK        -0.4204 
     60 CA         31.6342   -2.8031   -8.6596 C.3       10 UNK         0.0237 
     61 CB         31.1127   -3.5421   -7.4137 C.3       10 UNK        -0.1985 
     62 C          33.0119   -2.1740   -8.3797 C.2       10 UNK         0.4970 
     63 O          33.9632   -2.9101   -8.1154 O.2       10 UNK        -0.4914 
     64 N          33.0874   -0.8386   -8.4005 N.am      11 UNK        -0.4285 
     65 CA         34.2309   -0.0451   -7.9315 C.3       11 UNK         0.1007 
     66 C          35.1605    0.4585   -9.0712 C.2       11 UNK         0.5703 
     67 N          34.8931    0.1485  -10.3345 N.am      11 UNK        -0.7361 
     68 O          36.1558    1.1274   -8.8032 O.2       11 UNK        -0.4986 
     69 C69        33.7676    1.1151   -7.0043 C.3       12 UNK        -0.0947 
     70 S70        32.4845    0.6450   -5.7881 S.3       12 UNK        -0.2240 
     71 C71        33.3603   -0.5761   -4.7599 C.3       12 UNK         0.0194 
     72 H72        23.9659   -6.4823   -6.2355 H         1 UNK         0.0906 
     73 H73        24.3984   -4.8722   -6.8156 H         1 UNK         0.0906 
     74 H74        25.6429   -6.1117   -6.6413 H         1 UNK         0.0906 
     75 H75        26.9171   -5.7600   -4.8356 H         1 UNK         0.3140 
     76 H76        26.0149   -5.5272   -2.2013 H         1 UNK         0.1085 
     77 H77        28.1746   -6.4176   -2.4727 H         1 UNK         0.0836 
     78 H78        28.4567   -4.8767   -1.7291 H         1 UNK         0.0836 
     79 H79        31.6326   -5.1792   -3.6793 H         1 UNK         0.0731 
     80 H80        30.8087   -5.1312   -2.1491 H         1 UNK         0.0731 
     81 H81        32.4823   -3.1722   -4.7160 H         1 UNK         0.1312 
     82 H82        32.1338    0.5504   -2.6225 H         1 UNK         0.1406 
     83 H83        29.9156   -2.8732   -1.2941 H         1 UNK         0.1631 
     84 H84        31.1280    0.1505   -0.0852 H         1 UNK         0.0717 
     85 H85        29.6721   -0.8168   -0.1120 H         1 UNK         0.0717 
     86 H86        28.2229   -0.7125   -2.2406 H         1 UNK         0.0934 
     87 H87        27.1709    0.6518   -2.0710 H         1 UNK         0.0934 
     88 H88        29.3737    0.5947   -4.2130 H         1 UNK         0.0739 
     89 H89        27.2054   -1.1542   -4.2257 H         1 UNK         0.3093 
     90 H90        26.4227   -1.2121   -7.6985 H         1 UNK         0.0818 
     91 H91        26.7458   -3.6561   -7.3140 H         1 UNK         0.0819 
     92 H92        28.2753   -2.8222   -7.5014 H         1 UNK         0.0819 
     93 H93        27.7411   -3.3077   -5.8989 H         1 UNK         0.0819 
     94 H94        25.4095   -2.5229   -5.3211 H         1 UNK         0.3041 
     95 H95        22.8284   -0.1482   -4.7032 H         1 UNK         0.0784 
     96 H96        21.9290   -1.5918   -6.5196 H         1 UNK         0.0793 
     97 H97        22.7311   -2.9981   -5.8357 H         1 UNK         0.0793 
     98 H98        21.4393   -2.1957   -4.9450 H         1 UNK         0.0793 
     99 H99        23.6344   -2.6733   -3.5242 H         1 UNK         0.3024 
    100 H100       25.8427   -1.2333   -1.1198 H         1 UNK         0.1171 
    101 H101       24.2859   -2.2419    0.5180 H         1 UNK         0.0786 
    102 H102       23.5828   -0.7776   -0.1462 H         1 UNK         0.0786 
    103 H103       23.0162   -2.3464   -0.7027 H         1 UNK         0.0786 
    104 H104       24.9069   -3.8823   -1.3138 H         1 UNK         0.2977 
    105 H105       25.8666    1.4039   -3.9807 H         1 UNK         0.3127 
    106 H106       26.1356    4.2084   -4.0025 H         1 UNK         0.0770 
    107 H107       23.7863    2.4530   -4.9007 H         1 UNK         0.0814 
    108 H108       23.6917    4.1729   -4.5446 H         1 UNK         0.0814 
    109 H109       24.0811    3.0348   -3.2640 H         1 UNK         0.0814 
    110 H110       25.6612    1.9398   -6.7427 H         1 UNK         0.2983 
    111 H111       25.6069    4.0109   -8.7629 H         1 UNK         0.0947 
    112 H112       26.0403    0.9799   -8.9605 H         1 UNK         0.0806 
    113 H113       25.6991    2.0492  -10.3155 H         1 UNK         0.0806 
    114 H114       24.4903    1.8096   -9.0636 H         1 UNK         0.0806 
    115 H115       28.1748    2.4318   -7.0886 H         1 UNK         0.3000 
    116 H116       30.3501    2.2437   -7.2088 H         1 UNK         0.0850 
    117 H117       31.7715    3.9135   -8.3253 H         1 UNK         0.0810 
    118 H118       30.4391    4.7313   -7.5264 H         1 UNK         0.0810 
    119 H119       30.4184    4.5054   -9.2760 H         1 UNK         0.0810 
    120 H120       28.6402    0.6281   -8.7923 H         1 UNK         0.3040 
    121 H121       29.7021    0.2518  -11.4701 H         1 UNK         0.0766 
    122 H122       28.0280   -1.6014  -11.5618 H         1 UNK         0.0812 
    123 H123       27.3001   -0.1151  -10.9789 H         1 UNK         0.0812 
    124 H124       27.6957   -1.4091   -9.8469 H         1 UNK         0.0812 
    125 H125       30.0729   -1.3935   -8.3502 H         1 UNK         0.3205 
    126 H126       31.7737   -3.5382   -9.4551 H         1 UNK         0.0754 
    127 H127       31.8572   -4.2368   -7.0224 H         1 UNK         0.0769 
    128 H128       30.2269   -4.1323   -7.6469 H         1 UNK         0.0769 
    129 H129       30.8557   -2.8514   -6.6094 H         1 UNK         0.0769 
    130 H130       32.2756   -0.3066   -8.6758 H         1 UNK         0.2981 
    131 H131       34.8736   -0.6889   -7.3299 H         1 UNK         0.0541 
    132 H132       35.5058    0.4755  -11.0646 H         1 UNK         0.3459 
    133 H133       34.0784   -0.3985  -10.5635 H         1 UNK         0.3459 
    134 H134       34.6182    1.5351   -6.4647 H         1 UNK         0.0612 
    135 H135       33.3544    1.9297   -7.6021 H         1 UNK         0.0612 
    136 H136       33.8228   -1.3317   -5.3947 H         1 UNK         0.0624 
    137 H137       34.1677   -0.0822   -4.2177 H         1 UNK         0.0624 
@<TRIPOS>BOND
     1    1    2 1    
     2    1   72 1    
     3    1   73 1    
     4    1   74 1    
     5    2    3 2    
     6    2    4 am   BACKBONE|DICT|INTERRES
     7    4    5 1    
     8    4   75 1    
     9    5    6 1    
    10    5   35 1    
    11    5   76 1    
    12    6    7 1    
    13    6   77 1    
    14    6   78 1    
    15    7    8 1    
    16    8    9 1    
    17    8   79 1    
    18    8   80 1    
    19    9   10 ar   
    20    9   14 ar   
    21   10   11 ar   
    22   10   81 1    
    23   11   12 ar   
    24   11   71 1    
    25   12   13 ar   
    26   12   82 1    
    27   13   14 ar   
    28   13   15 1    
    29   14   83 1    
    30   15   16 1    
    31   15   84 1    
    32   15   85 1    
    33   16   17 1    
    34   17   18 1    
    35   17   86 1    
    36   17   87 1    
    37   18   19 1    
    38   18   37 1    
    39   18   88 1    
    40   19   20 am   BACKBONE|DICT|INTERRES
    41   19   89 1    
    42   20   21 2    
    43   20   22 1    
    44   22   23 1    
    45   22   24 1    
    46   22   90 1    
    47   23   91 1    
    48   23   92 1    
    49   23   93 1    
    50   24   25 am   BACKBONE|DICT|INTERRES
    51   24   94 1    
    52   25   26 2    
    53   25   27 1    
    54   27   28 1    
    55   27   29 1    
    56   27   95 1    
    57   28   96 1    
    58   28   97 1    
    59   28   98 1    
    60   29   30 am   BACKBONE|DICT|INTERRES
    61   29   99 1    
    62   30   31 2    
    63   30   32 1    
    64   32   33 1    
    65   32   34 1    
    66   32  100 1    
    67   33  101 1    
    68   33  102 1    
    69   33  103 1    
    70   34   35 am   BACKBONE|DICT|INTERRES
    71   34  104 1    
    72   35   36 2    
    73   37   38 2    
    74   37   39 am   BACKBONE|DICT|INTERRES
    75   39   40 1    
    76   39  105 1    
    77   40   41 1    
    78   40   42 1    
    79   40  106 1    
    80   41  107 1    
    81   41  108 1    
    82   41  109 1    
    83   42   43 2    
    84   42   44 am   BACKBONE|DICT|INTERRES
    85   44   45 1    
    86   44  110 1    
    87   45   46 1    
    88   45   47 1    
    89   45  111 1    
    90   46  112 1    
    91   46  113 1    
    92   46  114 1    
    93   47   48 2    
    94   47   49 am   BACKBONE|DICT|INTERRES
    95   49   50 1    
    96   49  115 1    
    97   50   51 1    
    98   50   52 1    
    99   50  116 1    
   100   51  117 1    
   101   51  118 1    
   102   51  119 1    
   103   52   53 2    
   104   52   54 am   BACKBONE|DICT|INTERRES
   105   54   55 1    
   106   54  120 1    
   107   55   56 1    
   108   55   57 1    
   109   55  121 1    
   110   56  122 1    
   111   56  123 1    
   112   56  124 1    
   113   57   58 2    
   114   57   59 am   BACKBONE|DICT|INTERRES
   115   59   60 1    
   116   59  125 1    
   117   60   61 1    
   118   60   62 1    
   119   60  126 1    
   120   61  127 1    
   121   61  128 1    
   122   61  129 1    
   123   62   63 2    
   124   62   64 am   BACKBONE|DICT|INTERRES
   125   64   65 1    
   126   64  130 1    
   127   65   66 1    
   128   65   69 1    
   129   65  131 1    
   130   66   67 am   BACKBONE|DICT|INTERRES
   131   66   68 2    
   132   67  132 1    
   133   67  133 1    
   134   69   70 1    
   135   69  134 1    
   136   69  135 1    
   137   70   71 1    
   138   71  136 1    
   139   71  137 1    
@<TRIPOS>SUBSTRUCTURE
     1 UNK         1 GROUP             0       ****    0 ROOT    
