@<TRIPOS>MOLECULE
3R137
137   139    1
SMALL
USER_CHARGES


@<TRIPOS>ATOM
      1 CA         25.6424   -4.7842   -8.7679 C.3       0 UNK        -0.2020 
      2 C          25.6089   -5.2071   -7.3076 C.2       0 UNK         0.4855 
      3 O          24.8152   -6.0734   -6.9387 O.2       0 UNK        -0.5197 
      4 N          26.4759   -4.6134   -6.4791 N.am      1 UNK        -0.4892 
      5 CA         26.5485   -4.8618   -5.0366 C.3       1 UNK         0.0835 
      6 C6         27.9443   -4.4838   -4.4809 C.3       12 UNK        -0.0855 
      7 S7         28.3417   -5.3802   -2.9440 S.3       12 UNK        -0.2931 
      8 C8         30.1617   -5.2604   -2.9243 C.3       12 UNK         0.0378 
      9 C9         30.6967   -3.8339   -2.8087 C.ar      12 UNK        -0.0802 
     10 C10        31.8615   -3.4809   -3.4981 C.ar      12 UNK        -0.0944 
     11 C11        32.4186   -2.2040   -3.3738 C.ar      12 UNK        -0.0787 
     12 C12        31.7793   -1.2678   -2.5492 C.ar      12 UNK        -0.0862 
     13 C13        30.6072   -1.5975   -1.8648 C.ar      12 UNK        -0.0733 
     14 C14        30.0761   -2.8832   -1.9897 C.ar      12 UNK        -0.0832 
     15 C15        29.9315   -0.5739   -0.9639 C.3       12 UNK         0.0240 
     16 S16        28.4744    0.1819   -1.7511 S.3       12 UNK        -0.2522 
     17 C17        29.2160    1.1985   -3.0755 C.3       12 UNK        -0.0967 
     18 CA         28.7697    0.7363   -4.4850 C.3       5 UNK         0.0660 
     19 N          27.3119    0.7350   -4.6281 N.am      5 UNK        -0.4015 
     20 C          26.6082    0.3051   -5.6826 C.2       4 UNK         0.4946 
     21 O          27.1178   -0.0971   -6.7329 O.2       4 UNK        -0.5353 
     22 CA         25.0745    0.3541   -5.5361 C.3       4 UNK         0.0277 
     23 CB         24.3414   -0.3664   -6.6820 C.3       4 UNK        -0.1981 
     24 N          24.6125   -0.1918   -4.2542 N.am      4 UNK        -0.4209 
     25 C          24.5636    0.4941   -3.1013 C.2       3 UNK         0.4942 
     26 O          25.0047    1.6390   -2.9919 O.2       3 UNK        -0.5208 
     27 CA         23.9237   -0.1716   -1.8686 C.3       3 UNK         0.0250 
     28 CB         22.6013    0.5281   -1.5110 C.3       3 UNK        -0.1990 
     29 N          23.6625   -1.5994   -2.0553 N.am      3 UNK        -0.4232 
     30 C          24.5366   -2.5746   -1.7793 C.2       2 UNK         0.4993 
     31 O          25.6433   -2.3801   -1.2751 O.2       2 UNK        -0.5286 
     32 CA         24.1278   -4.0167   -2.1412 C.3       2 UNK         0.0209 
     33 CB         22.6793   -4.1650   -2.6644 C.3       2 UNK        -0.1931 
     34 N          25.0811   -4.6062   -3.0883 N.am      2 UNK        -0.4546 
     35 C          25.4178   -4.1193   -4.2918 C.2       1 UNK         0.5154 
     36 O          24.8999   -3.1171   -4.7930 O.2       1 UNK        -0.5181 
     37 C          29.4470    1.5726   -5.5860 C.2       5 UNK         0.5014 
     38 O          30.2880    1.0561   -6.3189 O.2       5 UNK        -0.5248 
     39 N          29.0459    2.8421   -5.7166 N.am      6 UNK        -0.4434 
     40 CA         29.5159    3.7196   -6.7906 C.3       6 UNK         0.0363 
     41 CB         29.4177    5.1835   -6.3328 C.3       6 UNK        -0.1936 
     42 C          28.7297    3.5121   -8.0959 C.2       6 UNK         0.5081 
     43 O          29.2965    3.6842   -9.1742 O.2       6 UNK        -0.5248 
     44 N          27.4368    3.1802   -7.9745 N.am      7 UNK        -0.4718 
     45 CA         26.4851    3.1523   -9.0858 C.3       7 UNK         0.0273 
     46 CB         25.0527    3.2478   -8.5357 C.3       7 UNK        -0.1935 
     47 C          26.6285    1.9425  -10.0222 C.2       7 UNK         0.5018 
     48 O          26.4650    2.1177  -11.2307 O.2       7 UNK        -0.5186 
     49 N          26.8983    0.7511   -9.4693 N.am      8 UNK        -0.4240 
     50 CA         26.9520   -0.5018  -10.2302 C.3       8 UNK         0.0235 
     51 CB         25.7398   -1.3791   -9.8822 C.3       8 UNK        -0.2000 
     52 C          28.2578   -1.2687  -10.0014 C.2       8 UNK         0.4941 
     53 O          28.8097   -1.7920  -10.9700 O.2       8 UNK        -0.5273 
     54 N          28.7449   -1.3265   -8.7514 N.am      9 UNK        -0.4262 
     55 CA         30.0101   -1.9976   -8.4188 C.3       9 UNK         0.0264 
     56 CB         30.0515   -2.3342   -6.9195 C.3       9 UNK        -0.1955 
     57 C          31.2541   -1.1935   -8.8472 C.2       9 UNK         0.5031 
     58 O          32.3310   -1.7804   -8.9631 O.2       9 UNK        -0.5390 
     59 N          31.0774    0.1162   -9.0868 N.am      10 UNK        -0.4204 
     60 CA         32.0741    1.0975   -9.5319 C.3       10 UNK         0.0237 
     61 CB         32.5272    0.7962  -10.9765 C.3       10 UNK        -0.1985 
     62 C          33.2501    1.2513   -8.5479 C.2       10 UNK         0.4970 
     63 O          34.4003    1.3755   -8.9731 O.2       10 UNK        -0.4914 
     64 N          32.9356    1.2375   -7.2471 N.am      11 UNK        -0.4285 
     65 CA         33.8994    1.3355   -6.1420 C.3       11 UNK         0.1007 
     66 C          34.5393    2.7422   -5.9443 C.2       11 UNK         0.5703 
     67 N          34.0422    3.7961   -6.5820 N.am      11 UNK        -0.7361 
     68 O          35.5110    2.8795   -5.2054 O.2       11 UNK        -0.4986 
     69 C69        33.2797    0.7891   -4.8258 C.3       12 UNK        -0.0947 
     70 S70        34.4428   -0.2485   -3.8804 S.3       12 UNK        -0.2240 
     71 C71        33.7142   -1.9059   -4.1376 C.3       12 UNK         0.0194 
     72 H72        25.6640   -5.6619   -9.4134 H         1 UNK         0.0906 
     73 H73        24.7516   -4.2053   -9.0101 H         1 UNK         0.0906 
     74 H74        26.5212   -4.1809   -8.9950 H         1 UNK         0.0906 
     75 H75        27.0604   -3.8678   -6.8256 H         1 UNK         0.3140 
     76 H76        26.3964   -5.9336   -4.8866 H         1 UNK         0.1085 
     77 H77        28.0382   -3.4078   -4.3156 H         1 UNK         0.0836 
     78 H78        28.7132   -4.7473   -5.2091 H         1 UNK         0.0836 
     79 H79        30.5375   -5.8374   -2.0784 H         1 UNK         0.0731 
     80 H80        30.5499   -5.7440   -3.8223 H         1 UNK         0.0731 
     81 H81        32.3527   -4.2134   -4.1246 H         1 UNK         0.1312 
     82 H82        32.1874   -0.2765   -2.4222 H         1 UNK         0.1406 
     83 H83        29.1778   -3.1400   -1.4441 H         1 UNK         0.1631 
     84 H84        30.6317    0.2088   -0.6679 H         1 UNK         0.0717 
     85 H85        29.6149   -1.0604   -0.0401 H         1 UNK         0.0717 
     86 H86        30.3035    1.1742   -2.9919 H         1 UNK         0.0934 
     87 H87        28.9269    2.2357   -2.8959 H         1 UNK         0.0934 
     88 H88        29.0986   -0.2963   -4.6127 H         1 UNK         0.0739 
     89 H89        26.7853    1.0552   -3.8223 H         1 UNK         0.3093 
     90 H90        24.7907    1.4074   -5.5851 H         1 UNK         0.0818 
     91 H91        23.2599   -0.3120   -6.5583 H         1 UNK         0.0819 
     92 H92        24.5754    0.0860   -7.6448 H         1 UNK         0.0819 
     93 H93        24.6185   -1.4188   -6.7403 H         1 UNK         0.0819 
     94 H94        24.3612   -1.1753   -4.2593 H         1 UNK         0.3041 
     95 H95        24.6146   -0.0344   -1.0337 H         1 UNK         0.0784 
     96 H96        22.7588    1.5918   -1.3264 H         1 UNK         0.0793 
     97 H97        21.8675    0.4421   -2.3133 H         1 UNK         0.0793 
     98 H98        22.1618    0.1071   -0.6065 H         1 UNK         0.0793 
     99 H99        22.7807   -1.8497   -2.4792 H         1 UNK         0.3024 
    100 H100       24.2065   -4.5909   -1.2166 H         1 UNK         0.1171 
    101 H101       22.4406   -5.2124   -2.8496 H         1 UNK         0.0786 
    102 H102       22.5150   -3.6256   -3.5979 H         1 UNK         0.0786 
    103 H103       21.9549   -3.8021   -1.9340 H         1 UNK         0.0786 
    104 H104       25.6159   -5.3881   -2.7344 H         1 UNK         0.2977 
    105 H105       28.3568    3.2129   -5.0784 H         1 UNK         0.3127 
    106 H106       30.5670    3.5068   -6.9989 H         1 UNK         0.0770 
    107 H107       28.3904    5.4714   -6.1058 H         1 UNK         0.0814 
    108 H108       29.7809    5.8589   -7.1088 H         1 UNK         0.0814 
    109 H109       30.0216    5.3614   -5.4428 H         1 UNK         0.0814 
    110 H110       27.0618    3.0468   -7.0486 H         1 UNK         0.2983 
    111 H111       26.6609    4.0433   -9.6937 H         1 UNK         0.0947 
    112 H112       24.3215    3.2335   -9.3454 H         1 UNK         0.0806 
    113 H113       24.9014    4.1758   -7.9838 H         1 UNK         0.0806 
    114 H114       24.8157    2.4199   -7.8697 H         1 UNK         0.0806 
    115 H115       27.0191    0.6795   -8.4626 H         1 UNK         0.3000 
    116 H116       26.9051   -0.2938  -11.3013 H         1 UNK         0.0850 
    117 H117       25.7164   -2.2707  -10.5097 H         1 UNK         0.0810 
    118 H118       24.8030   -0.8462  -10.0448 H         1 UNK         0.0810 
    119 H119       25.7668   -1.7084   -8.8439 H         1 UNK         0.0810 
    120 H120       28.2275   -0.8968   -7.9860 H         1 UNK         0.3040 
    121 H121       30.0392   -2.9445   -8.9627 H         1 UNK         0.0766 
    122 H122       30.8916   -2.9944   -6.6942 H         1 UNK         0.0812 
    123 H123       29.1407   -2.8405   -6.6007 H         1 UNK         0.0812 
    124 H124       30.1734   -1.4457   -6.3032 H         1 UNK         0.0812 
    125 H125       30.1589    0.4880   -8.8909 H         1 UNK         0.3205 
    126 H126       31.5653    2.0624   -9.5434 H         1 UNK         0.0754 
    127 H127       33.1682    1.5909  -11.3602 H         1 UNK         0.0769 
    128 H128       31.6738    0.7162  -11.6500 H         1 UNK         0.0769 
    129 H129       33.0908   -0.1353  -11.0377 H         1 UNK         0.0769 
    130 H130       31.9586    1.1344   -6.9767 H         1 UNK         0.2981 
    131 H131       34.7266    0.6808   -6.4231 H         1 UNK         0.0541 
    132 H132       33.2558    3.6944   -7.2012 H         1 UNK         0.3459 
    133 H133       34.4696    4.6989   -6.4494 H         1 UNK         0.3459 
    134 H134       32.3999    0.1812   -5.0402 H         1 UNK         0.0612 
    135 H135       32.9164    1.5939   -4.1836 H         1 UNK         0.0612 
    136 H136       33.5409   -2.0494   -5.2060 H         1 UNK         0.0624 
    137 H137       34.4629   -2.6441   -3.8454 H         1 UNK         0.0624 
@<TRIPOS>BOND
     1    1    2 1    
     2    1   72 1    
     3    1   73 1    
     4    1   74 1    
     5    2    3 2    
     6    2    4 am   BACKBONE|DICT|INTERRES
     7    4    5 1    
     8    4   75 1    
     9    5    6 1    
    10    5   35 1    
    11    5   76 1    
    12    6    7 1    
    13    6   77 1    
    14    6   78 1    
    15    7    8 1    
    16    8    9 1    
    17    8   79 1    
    18    8   80 1    
    19    9   10 ar   
    20    9   14 ar   
    21   10   11 ar   
    22   10   81 1    
    23   11   12 ar   
    24   11   71 1    
    25   12   13 ar   
    26   12   82 1    
    27   13   14 ar   
    28   13   15 1    
    29   14   83 1    
    30   15   16 1    
    31   15   84 1    
    32   15   85 1    
    33   16   17 1    
    34   17   18 1    
    35   17   86 1    
    36   17   87 1    
    37   18   19 1    
    38   18   37 1    
    39   18   88 1    
    40   19   20 am   BACKBONE|DICT|INTERRES
    41   19   89 1    
    42   20   21 2    
    43   20   22 1    
    44   22   23 1    
    45   22   24 1    
    46   22   90 1    
    47   23   91 1    
    48   23   92 1    
    49   23   93 1    
    50   24   25 am   BACKBONE|DICT|INTERRES
    51   24   94 1    
    52   25   26 2    
    53   25   27 1    
    54   27   28 1    
    55   27   29 1    
    56   27   95 1    
    57   28   96 1    
    58   28   97 1    
    59   28   98 1    
    60   29   30 am   BACKBONE|DICT|INTERRES
    61   29   99 1    
    62   30   31 2    
    63   30   32 1    
    64   32   33 1    
    65   32   34 1    
    66   32  100 1    
    67   33  101 1    
    68   33  102 1    
    69   33  103 1    
    70   34   35 am   BACKBONE|DICT|INTERRES
    71   34  104 1    
    72   35   36 2    
    73   37   38 2    
    74   37   39 am   BACKBONE|DICT|INTERRES
    75   39   40 1    
    76   39  105 1    
    77   40   41 1    
    78   40   42 1    
    79   40  106 1    
    80   41  107 1    
    81   41  108 1    
    82   41  109 1    
    83   42   43 2    
    84   42   44 am   BACKBONE|DICT|INTERRES
    85   44   45 1    
    86   44  110 1    
    87   45   46 1    
    88   45   47 1    
    89   45  111 1    
    90   46  112 1    
    91   46  113 1    
    92   46  114 1    
    93   47   48 2    
    94   47   49 am   BACKBONE|DICT|INTERRES
    95   49   50 1    
    96   49  115 1    
    97   50   51 1    
    98   50   52 1    
    99   50  116 1    
   100   51  117 1    
   101   51  118 1    
   102   51  119 1    
   103   52   53 2    
   104   52   54 am   BACKBONE|DICT|INTERRES
   105   54   55 1    
   106   54  120 1    
   107   55   56 1    
   108   55   57 1    
   109   55  121 1    
   110   56  122 1    
   111   56  123 1    
   112   56  124 1    
   113   57   58 2    
   114   57   59 am   BACKBONE|DICT|INTERRES
   115   59   60 1    
   116   59  125 1    
   117   60   61 1    
   118   60   62 1    
   119   60  126 1    
   120   61  127 1    
   121   61  128 1    
   122   61  129 1    
   123   62   63 2    
   124   62   64 am   BACKBONE|DICT|INTERRES
   125   64   65 1    
   126   64  130 1    
   127   65   66 1    
   128   65   69 1    
   129   65  131 1    
   130   66   67 am   BACKBONE|DICT|INTERRES
   131   66   68 2    
   132   67  132 1    
   133   67  133 1    
   134   69   70 1    
   135   69  134 1    
   136   69  135 1    
   137   70   71 1    
   138   71  136 1    
   139   71  137 1    
@<TRIPOS>SUBSTRUCTURE
     1 UNK         1 GROUP             0       ****    0 ROOT    
