@<TRIPOS>MOLECULE
3R137
137   139    1
SMALL
USER_CHARGES


@<TRIPOS>ATOM
      1 CA         25.5282   -6.7074   -4.3256 C.3       0 UNK        -0.2020 
      2 C          25.7088   -5.7011   -3.1991 C.2       0 UNK         0.4855 
      3 O          24.7405   -5.0556   -2.7948 O.2       0 UNK        -0.5197 
      4 N          26.9417   -5.5636   -2.6906 N.am      1 UNK        -0.4892 
      5 CA         27.3286   -4.6273   -1.6288 C.3       1 UNK         0.0835 
      6 C6         28.8080   -4.8344   -1.2205 C.3       12 UNK        -0.0855 
      7 S7         29.2944   -3.8747    0.2594 S.3       12 UNK        -0.2931 
      8 C8         31.0576   -3.5193   -0.0574 C.3       12 UNK         0.0378 
      9 C9         31.2676   -2.7137   -1.3324 C.ar      12 UNK        -0.0802 
     10 C10        31.8130   -3.3244   -2.4657 C.ar      12 UNK        -0.0944 
     11 C11        31.9471   -2.6110   -3.6587 C.ar      12 UNK        -0.0787 
     12 C12        31.5482   -1.2728   -3.7119 C.ar      12 UNK        -0.0862 
     13 C13        31.0121   -0.6464   -2.5837 C.ar      12 UNK        -0.0733 
     14 C14        30.8887   -1.3690   -1.3911 C.ar      12 UNK        -0.0832 
     15 C15        30.5179    0.7910   -2.6695 C.3       12 UNK         0.0240 
     16 S16        28.7236    0.8428   -2.3969 S.3       12 UNK        -0.2522 
     17 C17        28.1719    2.2388   -3.4320 C.3       12 UNK        -0.0967 
     18 CA         28.0054    1.9281   -4.9522 C.3       5 UNK         0.0660 
     19 N          27.7897    0.5151   -5.2648 N.am      5 UNK        -0.4015 
     20 C          27.9724   -0.0464   -6.4675 C.2       4 UNK         0.4946 
     21 O          28.4120    0.5494   -7.4543 O.2       4 UNK        -0.5353 
     22 CA         27.5854   -1.5270   -6.5965 C.3       4 UNK         0.0277 
     23 CB         28.7833   -2.4259   -6.2501 C.3       4 UNK        -0.1981 
     24 N          26.4338   -1.8788   -5.7589 N.am      4 UNK        -0.4209 
     25 C          25.1852   -1.4401   -5.9897 C.2       3 UNK         0.4942 
     26 O          24.8827   -0.7182   -6.9388 O.2       3 UNK        -0.5208 
     27 CA         24.0924   -1.8248   -4.9774 C.3       3 UNK         0.0250 
     28 CB         23.4423   -3.1598   -5.3700 C.3       3 UNK        -0.1990 
     29 N          24.5743   -1.8949   -3.5969 N.am      3 UNK        -0.4232 
     30 C          25.1038   -0.8618   -2.9234 C.2       2 UNK         0.4993 
     31 O          25.2031    0.2754   -3.3868 O.2       2 UNK        -0.5286 
     32 CA         25.6530   -1.1444   -1.5139 C.3       2 UNK         0.0209 
     33 CB         24.5924   -0.8054   -0.4549 C.3       2 UNK        -0.1931 
     34 N          26.1317   -2.5147   -1.2979 N.am      2 UNK        -0.4546 
     35 C          27.0267   -3.1729   -2.0511 C.2       1 UNK         0.5154 
     36 O          27.5526   -2.7111   -3.0670 O.2       1 UNK        -0.5181 
     37 C          26.8686    2.7713   -5.5584 C.2       5 UNK         0.5014 
     38 O          27.1412    3.7517   -6.2503 O.2       5 UNK        -0.5248 
     39 N          25.6166    2.3582   -5.3006 N.am      6 UNK        -0.4434 
     40 CA         24.3899    3.0259   -5.7481 C.3       6 UNK         0.0363 
     41 CB         23.1698    2.3253   -5.1306 C.3       6 UNK        -0.1936 
     42 C          24.2482    3.1036   -7.2769 C.2       6 UNK         0.5081 
     43 O          23.8039    4.1309   -7.7897 O.2       6 UNK        -0.5248 
     44 N          24.6559    2.0384   -7.9804 N.am      7 UNK        -0.4718 
     45 CA         24.7119    1.9875   -9.4447 C.3       7 UNK         0.0273 
     46 CB         24.7843    0.5167   -9.8893 C.3       7 UNK        -0.1935 
     47 C          25.8898    2.7779  -10.0463 C.2       7 UNK         0.5018 
     48 O          25.9281    2.9407  -11.2665 O.2       7 UNK        -0.5186 
     49 N          26.8396    3.2140   -9.2017 N.am      8 UNK        -0.4240 
     50 CA         28.1211    3.8445   -9.5442 C.3       8 UNK         0.0235 
     51 CB         27.9045    5.2302  -10.1888 C.3       8 UNK        -0.2000 
     52 C          29.0358    2.9252  -10.3789 C.2       8 UNK         0.4941 
     53 O          29.8328    3.4142  -11.1819 O.2       8 UNK        -0.5273 
     54 N          28.9015    1.6083  -10.1736 N.am      9 UNK        -0.4262 
     55 CA         29.6945    0.5748  -10.8340 C.3       9 UNK         0.0264 
     56 CB         28.8836   -0.7311  -10.8910 C.3       9 UNK        -0.1955 
     57 C          31.0263    0.3596  -10.1045 C.2       9 UNK         0.5031 
     58 O          32.0642    0.2586  -10.7612 O.2       9 UNK        -0.5390 
     59 N          30.9606    0.3139   -8.7642 N.am      10 UNK        -0.4204 
     60 CA         32.0631    0.0837   -7.8260 C.3       10 UNK         0.0237 
     61 CB         32.9979    1.3142   -7.7902 C.3       10 UNK        -0.1985 
     62 C          32.7996   -1.2528   -8.0731 C.2       10 UNK         0.4970 
     63 O          32.2071   -2.1916   -8.6102 O.2       10 UNK        -0.4914 
     64 N          34.0585   -1.3297   -7.6325 N.am      11 UNK        -0.4285 
     65 CA         34.9361   -2.5069   -7.7314 C.3       11 UNK         0.1007 
     66 C          36.4498   -2.1457   -7.6760 C.2       11 UNK         0.5703 
     67 N          36.8404   -0.8905   -7.8734 N.am      11 UNK        -0.7361 
     68 O          37.2946   -3.0154   -7.4753 O.2       11 UNK        -0.4986 
     69 C69        34.5234   -3.6607   -6.7683 C.3       12 UNK        -0.0947 
     70 S70        34.2852   -3.1295   -5.0370 S.3       12 UNK        -0.2240 
     71 C71        32.4803   -3.2970   -4.9031 C.3       12 UNK         0.0194 
     72 H72        25.2592   -6.1960   -5.2489 H         1 UNK         0.0906 
     73 H73        26.4355   -7.2827   -4.5083 H         1 UNK         0.0906 
     74 H74        24.7298   -7.4066   -4.0786 H         1 UNK         0.0906 
     75 H75        27.6965   -6.1050   -3.0872 H         1 UNK         0.3140 
     76 H76        26.7107   -4.8701   -0.7614 H         1 UNK         0.1085 
     77 H77        29.4563   -4.5949   -2.0630 H         1 UNK         0.0836 
     78 H78        28.9872   -5.8872   -0.9966 H         1 UNK         0.0836 
     79 H79        31.6083   -4.4605   -0.0981 H         1 UNK         0.0731 
     80 H80        31.4645   -2.9647    0.7894 H         1 UNK         0.0731 
     81 H81        32.1073   -4.3645   -2.4294 H         1 UNK         0.1312 
     82 H82        31.6380   -0.7253   -4.6383 H         1 UNK         0.1406 
     83 H83        30.4526   -0.8970   -0.5210 H         1 UNK         0.1631 
     84 H84        30.7531    1.2224   -3.6437 H         1 UNK         0.0717 
     85 H85        31.0205    1.4049   -1.9211 H         1 UNK         0.0717 
     86 H86        27.2279    2.5629   -2.9878 H         1 UNK         0.0934 
     87 H87        28.8555    3.0785   -3.2945 H         1 UNK         0.0934 
     88 H88        28.9331    2.2235   -5.4476 H         1 UNK         0.0739 
     89 H89        27.4373   -0.0540   -4.5073 H         1 UNK         0.3093 
     90 H90        27.3128   -1.7072   -7.6386 H         1 UNK         0.0818 
     91 H91        29.6323   -2.2127   -6.9014 H         1 UNK         0.0819 
     92 H92        29.1164   -2.2797   -5.2217 H         1 UNK         0.0819 
     93 H93        28.5377   -3.4806   -6.3742 H         1 UNK         0.0819 
     94 H94        26.6280   -2.4045   -4.9122 H         1 UNK         0.3041 
     95 H95        23.3231   -1.0515   -5.0137 H         1 UNK         0.0784 
     96 H96        23.0165   -3.1050   -6.3729 H         1 UNK         0.0793 
     97 H97        24.1650   -3.9755   -5.3677 H         1 UNK         0.0793 
     98 H98        22.6341   -3.4256   -4.6884 H         1 UNK         0.0793 
     99 H99        24.5545   -2.8046   -3.1503 H         1 UNK         0.3024 
    100 H100       26.5029   -0.4810   -1.3601 H         1 UNK         0.1171 
    101 H101       24.9971   -0.8870    0.5541 H         1 UNK         0.0786 
    102 H102       24.2347    0.2185   -0.5752 H         1 UNK         0.0786 
    103 H103       23.7258   -1.4641   -0.5258 H         1 UNK         0.0786 
    104 H104       25.7363   -2.9968   -0.5035 H         1 UNK         0.2977 
    105 H105       25.4901    1.5510   -4.6906 H         1 UNK         0.3127 
    106 H106       24.4222    4.0496   -5.3697 H         1 UNK         0.0770 
    107 H107       23.0877    1.2922   -5.4686 H         1 UNK         0.0814 
    108 H108       22.2455    2.8340   -5.4076 H         1 UNK         0.0814 
    109 H109       23.2232    2.3184   -4.0418 H         1 UNK         0.0814 
    110 H110       24.9390    1.1966   -7.4854 H         1 UNK         0.2983 
    111 H111       23.7925    2.4218   -9.8436 H         1 UNK         0.0947 
    112 H112       24.7860    0.4330  -10.9770 H         1 UNK         0.0806 
    113 H113       23.9283   -0.0507   -9.5235 H         1 UNK         0.0806 
    114 H114       25.6894    0.0298   -9.5230 H         1 UNK         0.0806 
    115 H115       26.6940    3.0642   -8.2096 H         1 UNK         0.3000 
    116 H116       28.6409    4.0005   -8.5977 H         1 UNK         0.0850 
    117 H117       28.8511    5.7592  -10.3054 H         1 UNK         0.0810 
    118 H118       27.2587    5.8562   -9.5731 H         1 UNK         0.0810 
    119 H119       27.4533    5.1518  -11.1783 H         1 UNK         0.0810 
    120 H120       28.2842    1.3030   -9.4299 H         1 UNK         0.3040 
    121 H121       29.9113    0.8865  -11.8582 H         1 UNK         0.0766 
    122 H122       27.9566   -0.5965  -11.4488 H         1 UNK         0.0812 
    123 H123       28.6253   -1.0948   -9.8956 H         1 UNK         0.0812 
    124 H124       29.4509   -1.5189  -11.3885 H         1 UNK         0.0812 
    125 H125       30.0398    0.4012   -8.3377 H         1 UNK         0.3205 
    126 H126       31.5947   -0.0058   -6.8461 H         1 UNK         0.0754 
    127 H127       33.6900    1.2718   -6.9487 H         1 UNK         0.0769 
    128 H128       32.4268    2.2361   -7.6779 H         1 UNK         0.0769 
    129 H129       33.5867    1.4019   -8.7044 H         1 UNK         0.0769 
    130 H130       34.4621   -0.5349   -7.1598 H         1 UNK         0.2981 
    131 H131       34.8154   -2.8941   -8.7447 H         1 UNK         0.0541 
    132 H132       36.1887   -0.1679   -8.1299 H         1 UNK         0.3459 
    133 H133       37.8260   -0.6815   -7.8384 H         1 UNK         0.3459 
    134 H134       33.6011   -4.1164   -7.1310 H         1 UNK         0.0612 
    135 H135       35.2552   -4.4699   -6.7833 H         1 UNK         0.0612 
    136 H136       32.2181   -4.3561   -4.8943 H         1 UNK         0.0624 
    137 H137       32.0005   -2.8725   -5.7851 H         1 UNK         0.0624 
@<TRIPOS>BOND
     1    1    2 1    
     2    1   72 1    
     3    1   73 1    
     4    1   74 1    
     5    2    3 2    
     6    2    4 am   BACKBONE|DICT|INTERRES
     7    4    5 1    
     8    4   75 1    
     9    5    6 1    
    10    5   35 1    
    11    5   76 1    
    12    6    7 1    
    13    6   77 1    
    14    6   78 1    
    15    7    8 1    
    16    8    9 1    
    17    8   79 1    
    18    8   80 1    
    19    9   10 ar   
    20    9   14 ar   
    21   10   11 ar   
    22   10   81 1    
    23   11   12 ar   
    24   11   71 1    
    25   12   13 ar   
    26   12   82 1    
    27   13   14 ar   
    28   13   15 1    
    29   14   83 1    
    30   15   16 1    
    31   15   84 1    
    32   15   85 1    
    33   16   17 1    
    34   17   18 1    
    35   17   86 1    
    36   17   87 1    
    37   18   19 1    
    38   18   37 1    
    39   18   88 1    
    40   19   20 am   BACKBONE|DICT|INTERRES
    41   19   89 1    
    42   20   21 2    
    43   20   22 1    
    44   22   23 1    
    45   22   24 1    
    46   22   90 1    
    47   23   91 1    
    48   23   92 1    
    49   23   93 1    
    50   24   25 am   BACKBONE|DICT|INTERRES
    51   24   94 1    
    52   25   26 2    
    53   25   27 1    
    54   27   28 1    
    55   27   29 1    
    56   27   95 1    
    57   28   96 1    
    58   28   97 1    
    59   28   98 1    
    60   29   30 am   BACKBONE|DICT|INTERRES
    61   29   99 1    
    62   30   31 2    
    63   30   32 1    
    64   32   33 1    
    65   32   34 1    
    66   32  100 1    
    67   33  101 1    
    68   33  102 1    
    69   33  103 1    
    70   34   35 am   BACKBONE|DICT|INTERRES
    71   34  104 1    
    72   35   36 2    
    73   37   38 2    
    74   37   39 am   BACKBONE|DICT|INTERRES
    75   39   40 1    
    76   39  105 1    
    77   40   41 1    
    78   40   42 1    
    79   40  106 1    
    80   41  107 1    
    81   41  108 1    
    82   41  109 1    
    83   42   43 2    
    84   42   44 am   BACKBONE|DICT|INTERRES
    85   44   45 1    
    86   44  110 1    
    87   45   46 1    
    88   45   47 1    
    89   45  111 1    
    90   46  112 1    
    91   46  113 1    
    92   46  114 1    
    93   47   48 2    
    94   47   49 am   BACKBONE|DICT|INTERRES
    95   49   50 1    
    96   49  115 1    
    97   50   51 1    
    98   50   52 1    
    99   50  116 1    
   100   51  117 1    
   101   51  118 1    
   102   51  119 1    
   103   52   53 2    
   104   52   54 am   BACKBONE|DICT|INTERRES
   105   54   55 1    
   106   54  120 1    
   107   55   56 1    
   108   55   57 1    
   109   55  121 1    
   110   56  122 1    
   111   56  123 1    
   112   56  124 1    
   113   57   58 2    
   114   57   59 am   BACKBONE|DICT|INTERRES
   115   59   60 1    
   116   59  125 1    
   117   60   61 1    
   118   60   62 1    
   119   60  126 1    
   120   61  127 1    
   121   61  128 1    
   122   61  129 1    
   123   62   63 2    
   124   62   64 am   BACKBONE|DICT|INTERRES
   125   64   65 1    
   126   64  130 1    
   127   65   66 1    
   128   65   69 1    
   129   65  131 1    
   130   66   67 am   BACKBONE|DICT|INTERRES
   131   66   68 2    
   132   67  132 1    
   133   67  133 1    
   134   69   70 1    
   135   69  134 1    
   136   69  135 1    
   137   70   71 1    
   138   71  136 1    
   139   71  137 1    
@<TRIPOS>SUBSTRUCTURE
     1 UNK         1 GROUP             0       ****    0 ROOT    
