@<TRIPOS>MOLECULE
3R137
137   139    1
SMALL
USER_CHARGES


@<TRIPOS>ATOM
      1 CA         26.4636   -6.3885    1.8354 C.3       0 UNK        -0.2020 
      2 C          26.2696   -4.8797    1.8324 C.2       0 UNK         0.4855 
      3 O          25.2427   -4.3933    2.3064 O.2       0 UNK        -0.5197 
      4 N          27.2504   -4.1358    1.3051 N.am      1 UNK        -0.4892 
      5 CA         27.2313   -2.6725    1.1771 C.3       1 UNK         0.0835 
      6 C6         28.6409   -2.0955    0.8789 C.3       12 UNK        -0.0855 
      7 S7         29.5457   -2.9660   -0.4517 S.3       12 UNK        -0.2931 
      8 C8         29.2963   -1.8344   -1.8515 C.3       12 UNK         0.0378 
      9 C9         29.8706   -2.4119   -3.1351 C.ar      12 UNK        -0.0802 
     10 C10        31.0338   -1.8756   -3.6915 C.ar      12 UNK        -0.0944 
     11 C11        31.5477   -2.3771   -4.8922 C.ar      12 UNK        -0.0787 
     12 C12        30.9004   -3.4487   -5.5195 C.ar      12 UNK        -0.0862 
     13 C13        29.7503   -4.0139   -4.9567 C.ar      12 UNK        -0.0733 
     14 C14        29.2332   -3.4796   -3.7722 C.ar      12 UNK        -0.0832 
     15 C15        29.0998   -5.2394   -5.5896 C.3       12 UNK         0.0240 
     16 S16        28.1392   -4.8599   -7.0903 S.3       12 UNK        -0.2522 
     17 C17        26.7707   -3.8455   -6.4311 C.3       12 UNK        -0.0967 
     18 CA         26.5347   -2.5443   -7.2352 C.3       5 UNK         0.0660 
     19 N          25.3247   -1.8491   -6.7877 N.am      5 UNK        -0.4015 
     20 C          24.8078   -0.7520   -7.3661 C.2       4 UNK         0.4946 
     21 O          25.2047   -0.2847   -8.4326 O.2       4 UNK        -0.5353 
     22 CA         23.7569    0.0131   -6.5569 C.3       4 UNK         0.0277 
     23 CB         22.3919   -0.6957   -6.5691 C.3       4 UNK        -0.1981 
     24 N          24.2557    0.1573   -5.1933 N.am      4 UNK        -0.4209 
     25 C          24.0350    1.1561   -4.3395 C.2       3 UNK         0.4942 
     26 O          23.2884    2.1072   -4.5749 O.2       3 UNK        -0.5208 
     27 CA         24.7924    1.0575   -2.9946 C.3       3 UNK         0.0250 
     28 CB         24.3292    2.1167   -1.9775 C.3       3 UNK        -0.1990 
     29 N          24.7077   -0.2698   -2.3684 N.am      3 UNK        -0.4232 
     30 C          25.3089   -1.3952   -2.7796 C.2       2 UNK         0.4993 
     31 O          26.0453   -1.4519   -3.7716 O.2       2 UNK        -0.5286 
     32 CA         24.9949   -2.6730   -1.9786 C.3       2 UNK         0.0209 
     33 CB         24.9152   -3.9082   -2.8935 C.3       2 UNK        -0.1931 
     34 N          25.9697   -2.9335   -0.9181 N.am      2 UNK        -0.4546 
     35 C          26.1769   -2.1720    0.1663 C.2       1 UNK         0.5154 
     36 O          25.5579   -1.1338    0.4032 O.2       1 UNK        -0.5181 
     37 C          27.7552   -1.6010   -7.1986 C.2       5 UNK         0.5014 
     38 O          28.5018   -1.5525   -8.1751 O.2       5 UNK        -0.5248 
     39 N          27.8869   -0.8160   -6.1166 N.am      6 UNK        -0.4434 
     40 CA         28.9138    0.2193   -5.9686 C.3       6 UNK         0.0363 
     41 CB         28.7707    0.8981   -4.5977 C.3       6 UNK        -0.1936 
     42 C          28.8824    1.2764   -7.0863 C.2       6 UNK         0.5081 
     43 O          29.9344    1.6426   -7.6105 O.2       6 UNK        -0.5248 
     44 N          27.6712    1.7221   -7.4492 N.am      7 UNK        -0.4718 
     45 CA         27.4302    2.6826   -8.5268 C.3       7 UNK         0.0273 
     46 CB         25.9921    3.2176   -8.4322 C.3       7 UNK        -0.1935 
     47 C          27.7066    2.0881   -9.9169 C.2       7 UNK         0.5018 
     48 O          28.2969    2.7719  -10.7531 O.2       7 UNK        -0.5186 
     49 N          27.2999    0.8279  -10.1304 N.am      8 UNK        -0.4240 
     50 CA         27.5534    0.0673  -11.3569 C.3       8 UNK         0.0235 
     51 CB         26.7335   -1.2329  -11.3397 C.3       8 UNK        -0.2000 
     52 C          29.0469   -0.2299  -11.5738 C.2       8 UNK         0.4941 
     53 O          29.5340   -0.0833  -12.6956 O.2       8 UNK        -0.5273 
     54 N          29.7472   -0.6228  -10.5002 N.am      9 UNK        -0.4262 
     55 CA         31.1936   -0.8505  -10.4848 C.3       9 UNK         0.0264 
     56 CB         31.5781   -1.5942   -9.1942 C.3       9 UNK        -0.1955 
     57 C          32.0084    0.4479  -10.6098 C.2       9 UNK         0.5031 
     58 O          33.1044    0.4120  -11.1711 O.2       9 UNK        -0.5390 
     59 N          31.4707    1.5519  -10.0670 N.am      10 UNK        -0.4204 
     60 CA         32.0849    2.8801   -9.9430 C.3       10 UNK         0.0237 
     61 CB         32.3103    3.5235  -11.3278 C.3       10 UNK        -0.1985 
     62 C          33.3514    2.8612   -9.0631 C.2       10 UNK         0.4970 
     63 O          34.2991    3.6059   -9.3222 O.2       10 UNK        -0.4914 
     64 N          33.3438    1.9908   -8.0474 N.am      11 UNK        -0.4285 
     65 CA         34.4227    1.8009   -7.0729 C.3       11 UNK         0.1007 
     66 C          34.5162    2.9497   -6.0289 C.2       11 UNK         0.5703 
     67 N          35.6460    3.0685   -5.3439 N.am      11 UNK        -0.7361 
     68 O          33.5817    3.7222   -5.8201 O.2       11 UNK        -0.4986 
     69 C69        34.3395    0.3944   -6.4188 C.3       12 UNK        -0.0947 
     70 S70        32.7194    0.0279   -5.6655 S.3       12 UNK        -0.2240 
     71 C71        32.8177   -1.7829   -5.4916 C.3       12 UNK         0.0194 
     72 H72        27.4163   -6.6786    1.3927 H         1 UNK         0.0906 
     73 H73        26.4348   -6.7685    2.8562 H         1 UNK         0.0906 
     74 H74        25.6664   -6.8701    1.2698 H         1 UNK         0.0906 
     75 H75        28.0784   -4.5831    0.9345 H         1 UNK         0.3140 
     76 H76        26.9215   -2.2740    2.1463 H         1 UNK         0.1085 
     77 H77        28.5938   -1.0252    0.6659 H         1 UNK         0.0836 
     78 H78        29.2500   -2.1779    1.7805 H         1 UNK         0.0836 
     79 H79        29.7567   -0.8723   -1.6207 H         1 UNK         0.0731 
     80 H80        28.2334   -1.6409   -1.9918 H         1 UNK         0.0731 
     81 H81        31.5355   -1.0549   -3.1974 H         1 UNK         0.1312 
     82 H82        31.2986   -3.8577   -6.4381 H         1 UNK         0.1406 
     83 H83        28.3450   -3.9060   -3.3277 H         1 UNK         0.1631 
     84 H84        28.4519   -5.7461   -4.8726 H         1 UNK         0.0717 
     85 H85        29.8776   -5.9587   -5.8499 H         1 UNK         0.0717 
     86 H86        25.8708   -4.4621   -6.4527 H         1 UNK         0.0934 
     87 H87        26.9466   -3.6132   -5.3812 H         1 UNK         0.0934 
     88 H88        26.3707   -2.8207   -8.2789 H         1 UNK         0.0739 
     89 H89        24.9255   -2.1789   -5.9221 H         1 UNK         0.3093 
     90 H90        23.6457    1.0037   -7.0037 H         1 UNK         0.0818 
     91 H91        21.6417   -0.1121   -6.0351 H         1 UNK         0.0819 
     92 H92        22.0316   -0.8289   -7.5900 H         1 UNK         0.0819 
     93 H93        22.4382   -1.6816   -6.1053 H         1 UNK         0.0819 
     94 H94        24.9230   -0.5412   -4.8756 H         1 UNK         0.3041 
     95 H95        25.8434    1.2528   -3.2137 H         1 UNK         0.0784 
     96 H96        24.4510    3.1248   -2.3764 H         1 UNK         0.0793 
     97 H97        23.2772    1.9925   -1.7176 H         1 UNK         0.0793 
     98 H98        24.9114    2.0640   -1.0571 H         1 UNK         0.0793 
     99 H99        24.1515   -0.3194   -1.5257 H         1 UNK         0.3024 
    100 H100       24.0157   -2.5464   -1.5112 H         1 UNK         0.1171 
    101 H101       24.5598   -4.7817   -2.3464 H         1 UNK         0.0786 
    102 H102       24.2217   -3.7427   -3.7191 H         1 UNK         0.0786 
    103 H103       25.8844   -4.1586   -3.3239 H         1 UNK         0.0786 
    104 H104       26.5332   -3.7653   -1.0142 H         1 UNK         0.2977 
    105 H105       27.2695   -0.9676   -5.3258 H         1 UNK         0.3127 
    106 H106       29.8789   -0.2847   -6.0126 H         1 UNK         0.0770 
    107 H107       27.8523    1.4809   -4.5277 H         1 UNK         0.0814 
    108 H108       29.6043    1.5778   -4.4162 H         1 UNK         0.0814 
    109 H109       28.7642    0.1704   -3.7890 H         1 UNK         0.0814 
    110 H110       26.8596    1.3345   -6.9928 H         1 UNK         0.2983 
    111 H111       28.1144    3.5227   -8.3866 H         1 UNK         0.0947 
    112 H112       25.8074    3.9701   -9.2001 H         1 UNK         0.0806 
    113 H113       25.8055    3.6886   -7.4669 H         1 UNK         0.0806 
    114 H114       25.2533    2.4276   -8.5689 H         1 UNK         0.0806 
    115 H115       26.7640    0.3597   -9.4042 H         1 UNK         0.3000 
    116 H116       27.2109    0.6733  -12.1984 H         1 UNK         0.0850 
    117 H117       26.8765   -1.7967  -12.2625 H         1 UNK         0.0810 
    118 H118       25.6669   -1.0276  -11.2456 H         1 UNK         0.0810 
    119 H119       27.0222   -1.8817  -10.5125 H         1 UNK         0.0810 
    120 H120       29.2495   -0.8007   -9.6270 H         1 UNK         0.3040 
    121 H121       31.4468   -1.4859  -11.3361 H         1 UNK         0.0766 
    122 H122       31.3124   -1.0208   -8.3049 H         1 UNK         0.0812 
    123 H123       32.6516   -1.7832   -9.1535 H         1 UNK         0.0812 
    124 H124       31.0744   -2.5588   -9.1272 H         1 UNK         0.0812 
    125 H125       30.5995    1.4441   -9.5573 H         1 UNK         0.3205 
    126 H126       31.3585    3.4953   -9.4098 H         1 UNK         0.0754 
    127 H127       32.6304    4.5614  -11.2290 H         1 UNK         0.0769 
    128 H128       31.3925    3.5225  -11.9163 H         1 UNK         0.0769 
    129 H129       33.0770    3.0001  -11.8996 H         1 UNK         0.0769 
    130 H130       32.4953    1.4740   -7.8623 H         1 UNK         0.2981 
    131 H131       35.3582    1.8323   -7.6351 H         1 UNK         0.0541 
    132 H132       36.4201    2.4417   -5.4997 H         1 UNK         0.3459 
    133 H133       35.7265    3.8022   -4.6574 H         1 UNK         0.3459 
    134 H134       35.1171    0.2636   -5.6643 H         1 UNK         0.0612 
    135 H135       34.5360   -0.3613   -7.1809 H         1 UNK         0.0612 
    136 H136       33.0200   -2.2196   -6.4707 H         1 UNK         0.0624 
    137 H137       33.6642   -2.0360   -4.8521 H         1 UNK         0.0624 
@<TRIPOS>BOND
     1    1    2 1    
     2    1   72 1    
     3    1   73 1    
     4    1   74 1    
     5    2    3 2    
     6    2    4 am   BACKBONE|DICT|INTERRES
     7    4    5 1    
     8    4   75 1    
     9    5    6 1    
    10    5   35 1    
    11    5   76 1    
    12    6    7 1    
    13    6   77 1    
    14    6   78 1    
    15    7    8 1    
    16    8    9 1    
    17    8   79 1    
    18    8   80 1    
    19    9   10 ar   
    20    9   14 ar   
    21   10   11 ar   
    22   10   81 1    
    23   11   12 ar   
    24   11   71 1    
    25   12   13 ar   
    26   12   82 1    
    27   13   14 ar   
    28   13   15 1    
    29   14   83 1    
    30   15   16 1    
    31   15   84 1    
    32   15   85 1    
    33   16   17 1    
    34   17   18 1    
    35   17   86 1    
    36   17   87 1    
    37   18   19 1    
    38   18   37 1    
    39   18   88 1    
    40   19   20 am   BACKBONE|DICT|INTERRES
    41   19   89 1    
    42   20   21 2    
    43   20   22 1    
    44   22   23 1    
    45   22   24 1    
    46   22   90 1    
    47   23   91 1    
    48   23   92 1    
    49   23   93 1    
    50   24   25 am   BACKBONE|DICT|INTERRES
    51   24   94 1    
    52   25   26 2    
    53   25   27 1    
    54   27   28 1    
    55   27   29 1    
    56   27   95 1    
    57   28   96 1    
    58   28   97 1    
    59   28   98 1    
    60   29   30 am   BACKBONE|DICT|INTERRES
    61   29   99 1    
    62   30   31 2    
    63   30   32 1    
    64   32   33 1    
    65   32   34 1    
    66   32  100 1    
    67   33  101 1    
    68   33  102 1    
    69   33  103 1    
    70   34   35 am   BACKBONE|DICT|INTERRES
    71   34  104 1    
    72   35   36 2    
    73   37   38 2    
    74   37   39 am   BACKBONE|DICT|INTERRES
    75   39   40 1    
    76   39  105 1    
    77   40   41 1    
    78   40   42 1    
    79   40  106 1    
    80   41  107 1    
    81   41  108 1    
    82   41  109 1    
    83   42   43 2    
    84   42   44 am   BACKBONE|DICT|INTERRES
    85   44   45 1    
    86   44  110 1    
    87   45   46 1    
    88   45   47 1    
    89   45  111 1    
    90   46  112 1    
    91   46  113 1    
    92   46  114 1    
    93   47   48 2    
    94   47   49 am   BACKBONE|DICT|INTERRES
    95   49   50 1    
    96   49  115 1    
    97   50   51 1    
    98   50   52 1    
    99   50  116 1    
   100   51  117 1    
   101   51  118 1    
   102   51  119 1    
   103   52   53 2    
   104   52   54 am   BACKBONE|DICT|INTERRES
   105   54   55 1    
   106   54  120 1    
   107   55   56 1    
   108   55   57 1    
   109   55  121 1    
   110   56  122 1    
   111   56  123 1    
   112   56  124 1    
   113   57   58 2    
   114   57   59 am   BACKBONE|DICT|INTERRES
   115   59   60 1    
   116   59  125 1    
   117   60   61 1    
   118   60   62 1    
   119   60  126 1    
   120   61  127 1    
   121   61  128 1    
   122   61  129 1    
   123   62   63 2    
   124   62   64 am   BACKBONE|DICT|INTERRES
   125   64   65 1    
   126   64  130 1    
   127   65   66 1    
   128   65   69 1    
   129   65  131 1    
   130   66   67 am   BACKBONE|DICT|INTERRES
   131   66   68 2    
   132   67  132 1    
   133   67  133 1    
   134   69   70 1    
   135   69  134 1    
   136   69  135 1    
   137   70   71 1    
   138   71  136 1    
   139   71  137 1    
@<TRIPOS>SUBSTRUCTURE
     1 UNK         1 GROUP             0       ****    0 ROOT    
