@<TRIPOS>MOLECULE
3R137
137   139    1
SMALL
USER_CHARGES


@<TRIPOS>ATOM
      1 CA         27.9372   -6.8993   -0.5654 C.3       0 UNK        -0.2020 
      2 C          27.1403   -5.8279    0.1637 C.2       0 UNK         0.4855 
      3 O          26.1095   -6.1312    0.7643 O.2       0 UNK        -0.5197 
      4 N          27.6089   -4.5744    0.1127 N.am      1 UNK        -0.4892 
      5 CA         26.9625   -3.4052    0.7253 C.3       1 UNK         0.0835 
      6 C6         27.9808   -2.2660    0.9963 C.3       12 UNK        -0.0855 
      7 S7         28.7810   -1.6107   -0.5085 S.3       12 UNK        -0.2931 
      8 C8         30.3719   -2.4970   -0.5148 C.3       12 UNK         0.0378 
      9 C9         30.9228   -2.5423   -1.9295 C.ar      12 UNK        -0.0802 
     10 C10        31.9019   -1.6323   -2.3421 C.ar      12 UNK        -0.0944 
     11 C11        32.3353   -1.6168   -3.6716 C.ar      12 UNK        -0.0787 
     12 C12        31.7987   -2.5328   -4.5800 C.ar      12 UNK        -0.0862 
     13 C13        30.8000   -3.4273   -4.1848 C.ar      12 UNK        -0.0733 
     14 C14        30.3876   -3.4480   -2.8511 C.ar      12 UNK        -0.0832 
     15 C15        30.0833   -4.2807   -5.2251 C.3       12 UNK         0.0240 
     16 S16        28.3422   -3.7607   -5.4649 S.3       12 UNK        -0.2522 
     17 C17        28.4671   -1.9376   -5.4917 C.3       12 UNK        -0.0967 
     18 CA         27.6987   -1.2673   -6.6493 C.3       5 UNK         0.0660 
     19 N          26.2480   -1.4374   -6.5388 N.am      5 UNK        -0.4015 
     20 C          25.3740   -1.0908   -7.4965 C.2       4 UNK         0.4946 
     21 O          25.7035   -0.6290   -8.5885 O.2       4 UNK        -0.5353 
     22 CA         23.8772   -1.2306   -7.1690 C.3       4 UNK         0.0277 
     23 CB         23.3888   -2.6531   -7.4849 C.3       4 UNK        -0.1981 
     24 N          23.5527   -0.8987   -5.7799 N.am      4 UNK        -0.4209 
     25 C          23.7951    0.2810   -5.1885 C.2       3 UNK         0.4942 
     26 O          24.2671    1.2537   -5.7762 O.2       3 UNK        -0.5208 
     27 CA         23.5094    0.3822   -3.6790 C.3       3 UNK         0.0250 
     28 CB         22.1496    1.0553   -3.4353 C.3       3 UNK        -0.1990 
     29 N          23.5488   -0.9093   -2.9806 N.am      3 UNK        -0.4232 
     30 C          24.6391   -1.6807   -2.8638 C.2       2 UNK         0.4993 
     31 O          25.7387   -1.3902   -3.3406 O.2       2 UNK        -0.5286 
     32 CA         24.4411   -3.0438   -2.1874 C.3       2 UNK         0.0209 
     33 CB         24.3045   -4.1458   -3.2521 C.3       2 UNK        -0.1931 
     34 N          25.5649   -3.3698   -1.3124 N.am      2 UNK        -0.4546 
     35 C          25.7197   -2.9182   -0.0596 C.2       1 UNK         0.5154 
     36 O          24.9134   -2.1674    0.4931 O.2       1 UNK        -0.5181 
     37 C          28.0949    0.2192   -6.7205 C.2       5 UNK         0.5014 
     38 O          28.9787    0.5686   -7.5044 O.2       5 UNK        -0.5248 
     39 N          27.4429    1.0597   -5.9042 N.am      6 UNK        -0.4434 
     40 CA         27.6572    2.5065   -5.8688 C.3       6 UNK         0.0363 
     41 CB         27.0215    3.0992   -4.6009 C.3       6 UNK        -0.1936 
     42 C          27.1202    3.1962   -7.1314 C.2       6 UNK         0.5081 
     43 O          27.7900    4.0804   -7.6634 O.2       6 UNK        -0.5248 
     44 N          25.9484    2.7533   -7.6099 N.am      7 UNK        -0.4718 
     45 CA         25.3288    3.2080   -8.8575 C.3       7 UNK         0.0273 
     46 CB         23.9114    2.6248   -8.9706 C.3       7 UNK        -0.1935 
     47 C          26.1652    2.8581  -10.1006 C.2       7 UNK         0.5018 
     48 O          26.3098    3.7001  -10.9877 O.2       7 UNK        -0.5186 
     49 N          26.7203    1.6381  -10.1310 N.am      8 UNK        -0.4240 
     50 CA         27.6325    1.1692  -11.1777 C.3       8 UNK         0.0235 
     51 CB         27.7158   -0.3653  -11.1172 C.3       8 UNK        -0.2000 
     52 C          29.0465    1.7717  -11.0819 C.2       8 UNK         0.4941 
     53 O          29.7671    1.7445  -12.0802 O.2       8 UNK        -0.5273 
     54 N          29.4248    2.2616   -9.8899 N.am      9 UNK        -0.4262 
     55 CA         30.7699    2.6855   -9.4790 C.3       9 UNK         0.0264 
     56 CB         31.2195    3.9470  -10.2455 C.3       9 UNK        -0.1955 
     57 C          31.7723    1.5190   -9.5769 C.2       9 UNK         0.5031 
     58 O          32.8408    1.6601  -10.1747 O.2       9 UNK        -0.5390 
     59 N          31.3782    0.3696   -9.0108 N.am      10 UNK        -0.4204 
     60 CA         32.0155   -0.9399   -9.1865 C.3       10 UNK         0.0237 
     61 CB         31.1626   -2.0076   -8.4835 C.3       10 UNK        -0.1985 
     62 C          33.4919   -1.0363   -8.7563 C.2       10 UNK         0.4970 
     63 O          34.2227   -1.8391   -9.3384 O.2       10 UNK        -0.4914 
     64 N          33.9093   -0.2257   -7.7751 N.am      11 UNK        -0.4285 
     65 CA         35.3162   -0.0989   -7.3503 C.3       11 UNK         0.1007 
     66 C          36.1307    0.9432   -8.1741 C.2       11 UNK         0.5703 
     67 N          35.5562    1.6407   -9.1476 N.am      11 UNK        -0.7361 
     68 O          37.3242    1.1138   -7.9357 O.2       11 UNK        -0.4986 
     69 C69        35.4486    0.1463   -5.8222 C.3       12 UNK        -0.0947 
     70 S70        34.8278   -1.2610   -4.8414 S.3       12 UNK        -0.2240 
     71 C71        33.3011   -0.5486   -4.1613 C.3       12 UNK         0.0194 
     72 H72        27.3250   -7.3593   -1.3407 H         1 UNK         0.0906 
     73 H73        28.2440   -7.6779    0.1325 H         1 UNK         0.0906 
     74 H74        28.8332   -6.4951   -1.0361 H         1 UNK         0.0906 
     75 H75        28.4571   -4.3771   -0.3959 H         1 UNK         0.3140 
     76 H76        26.5814   -3.7212    1.6994 H         1 UNK         0.1085 
     77 H77        28.7482   -2.6127    1.6904 H         1 UNK         0.0836 
     78 H78        27.4875   -1.4360    1.5060 H         1 UNK         0.0836 
     79 H79        31.0683   -1.9980    0.1610 H         1 UNK         0.0731 
     80 H80        30.2500   -3.5130   -0.1382 H         1 UNK         0.0731 
     81 H81        32.2914   -0.9081   -1.6395 H         1 UNK         0.1312 
     82 H82        32.1201   -2.5027   -5.6111 H         1 UNK         0.1406 
     83 H83        29.5956   -4.1201   -2.5521 H         1 UNK         0.1631 
     84 H84        30.1056   -5.3270   -4.9177 H         1 UNK         0.0717 
     85 H85        30.5984   -4.2309   -6.1857 H         1 UNK         0.0717 
     86 H86        28.1316   -1.5594   -4.5238 H         1 UNK         0.0934 
     87 H87        29.5152   -1.6551   -5.5679 H         1 UNK         0.0934 
     88 H88        28.0154   -1.7311   -7.5860 H         1 UNK         0.0739 
     89 H89        25.9047   -1.7777   -5.6501 H         1 UNK         0.3093 
     90 H90        23.3341   -0.5318   -7.8081 H         1 UNK         0.0818 
     91 H91        23.6030   -2.9164   -8.5219 H         1 UNK         0.0819 
     92 H92        23.8734   -3.3988   -6.8531 H         1 UNK         0.0819 
     93 H93        22.3112   -2.7435   -7.3468 H         1 UNK         0.0819 
     94 H94        23.1459   -1.6329   -5.2201 H         1 UNK         0.3041 
     95 H95        24.2872    1.0157   -3.2470 H         1 UNK         0.0784 
     96 H96        22.1044    2.0301   -3.9236 H         1 UNK         0.0793 
     97 H97        21.3254    0.4571   -3.8259 H         1 UNK         0.0793 
     98 H98        21.9725    1.2203   -2.3723 H         1 UNK         0.0793 
     99 H99        22.6802   -1.2246   -2.5719 H         1 UNK         0.3024 
    100 H100       23.5269   -3.0210   -1.5892 H         1 UNK         0.1171 
    101 H101       23.4511   -3.9588   -3.9050 H         1 UNK         0.0786 
    102 H102       25.1917   -4.2099   -3.8844 H         1 UNK         0.0786 
    103 H103       24.1502   -5.1227   -2.7931 H         1 UNK         0.0786 
    104 H104       26.2987   -3.9398   -1.7051 H         1 UNK         0.2977 
    105 H105       26.7116    0.6927   -5.3114 H         1 UNK         0.3127 
    106 H106       28.7336    2.6871   -5.8234 H         1 UNK         0.0770 
    107 H107       25.9403    2.9606   -4.5826 H         1 UNK         0.0814 
    108 H108       27.2116    4.1714   -4.5377 H         1 UNK         0.0814 
    109 H109       27.4337    2.6440   -3.7002 H         1 UNK         0.0814 
    110 H110       25.4328    2.0661   -7.0647 H         1 UNK         0.2983 
    111 H111       25.2481    4.2962   -8.8093 H         1 UNK         0.0947 
    112 H112       23.9265    1.5361   -9.0247 H         1 UNK         0.0806 
    113 H113       23.4101    2.9895   -9.8681 H         1 UNK         0.0806 
    114 H114       23.2962    2.9081   -8.1162 H         1 UNK         0.0806 
    115 H115       26.4834    0.9714   -9.4003 H         1 UNK         0.3000 
    116 H116       27.2190    1.4526  -12.1479 H         1 UNK         0.0850 
    117 H117       28.3651   -0.7552  -11.9023 H         1 UNK         0.0810 
    118 H118       26.7348   -0.8215  -11.2514 H         1 UNK         0.0810 
    119 H119       28.1158   -0.7081  -10.1618 H         1 UNK         0.0810 
    120 H120       28.7527    2.1981   -9.1359 H         1 UNK         0.3040 
    121 H121       30.6995    2.9473   -8.4220 H         1 UNK         0.0766 
    122 H122       31.3572    3.7510  -11.3092 H         1 UNK         0.0812 
    123 H123       32.1698    4.3176   -9.8595 H         1 UNK         0.0812 
    124 H124       30.4910    4.7514  -10.1435 H         1 UNK         0.0812 
    125 H125       30.4904    0.3793   -8.5085 H         1 UNK         0.3205 
    126 H126       31.9960   -1.1536  -10.2572 H         1 UNK         0.0754 
    127 H127       31.6362   -2.9896   -8.5263 H         1 UNK         0.0769 
    128 H128       30.1837   -2.1011   -8.9540 H         1 UNK         0.0769 
    129 H129       31.0029   -1.7608   -7.4356 H         1 UNK         0.0769 
    130 H130       33.2540    0.4234   -7.3681 H         1 UNK         0.2981 
    131 H131       35.8164   -1.0485   -7.5496 H         1 UNK         0.0541 
    132 H132       36.1140    2.3009   -9.6647 H         1 UNK         0.3459 
    133 H133       34.5798    1.5117   -9.3980 H         1 UNK         0.3459 
    134 H134       34.9393    1.0669   -5.5322 H         1 UNK         0.0612 
    135 H135       36.4951    0.2813   -5.5429 H         1 UNK         0.0612 
    136 H136       33.5611    0.1451   -3.3603 H         1 UNK         0.0624 
    137 H137       32.7984    0.0385   -4.9311 H         1 UNK         0.0624 
@<TRIPOS>BOND
     1    1    2 1    
     2    1   72 1    
     3    1   73 1    
     4    1   74 1    
     5    2    3 2    
     6    2    4 am   BACKBONE|DICT|INTERRES
     7    4    5 1    
     8    4   75 1    
     9    5    6 1    
    10    5   35 1    
    11    5   76 1    
    12    6    7 1    
    13    6   77 1    
    14    6   78 1    
    15    7    8 1    
    16    8    9 1    
    17    8   79 1    
    18    8   80 1    
    19    9   10 ar   
    20    9   14 ar   
    21   10   11 ar   
    22   10   81 1    
    23   11   12 ar   
    24   11   71 1    
    25   12   13 ar   
    26   12   82 1    
    27   13   14 ar   
    28   13   15 1    
    29   14   83 1    
    30   15   16 1    
    31   15   84 1    
    32   15   85 1    
    33   16   17 1    
    34   17   18 1    
    35   17   86 1    
    36   17   87 1    
    37   18   19 1    
    38   18   37 1    
    39   18   88 1    
    40   19   20 am   BACKBONE|DICT|INTERRES
    41   19   89 1    
    42   20   21 2    
    43   20   22 1    
    44   22   23 1    
    45   22   24 1    
    46   22   90 1    
    47   23   91 1    
    48   23   92 1    
    49   23   93 1    
    50   24   25 am   BACKBONE|DICT|INTERRES
    51   24   94 1    
    52   25   26 2    
    53   25   27 1    
    54   27   28 1    
    55   27   29 1    
    56   27   95 1    
    57   28   96 1    
    58   28   97 1    
    59   28   98 1    
    60   29   30 am   BACKBONE|DICT|INTERRES
    61   29   99 1    
    62   30   31 2    
    63   30   32 1    
    64   32   33 1    
    65   32   34 1    
    66   32  100 1    
    67   33  101 1    
    68   33  102 1    
    69   33  103 1    
    70   34   35 am   BACKBONE|DICT|INTERRES
    71   34  104 1    
    72   35   36 2    
    73   37   38 2    
    74   37   39 am   BACKBONE|DICT|INTERRES
    75   39   40 1    
    76   39  105 1    
    77   40   41 1    
    78   40   42 1    
    79   40  106 1    
    80   41  107 1    
    81   41  108 1    
    82   41  109 1    
    83   42   43 2    
    84   42   44 am   BACKBONE|DICT|INTERRES
    85   44   45 1    
    86   44  110 1    
    87   45   46 1    
    88   45   47 1    
    89   45  111 1    
    90   46  112 1    
    91   46  113 1    
    92   46  114 1    
    93   47   48 2    
    94   47   49 am   BACKBONE|DICT|INTERRES
    95   49   50 1    
    96   49  115 1    
    97   50   51 1    
    98   50   52 1    
    99   50  116 1    
   100   51  117 1    
   101   51  118 1    
   102   51  119 1    
   103   52   53 2    
   104   52   54 am   BACKBONE|DICT|INTERRES
   105   54   55 1    
   106   54  120 1    
   107   55   56 1    
   108   55   57 1    
   109   55  121 1    
   110   56  122 1    
   111   56  123 1    
   112   56  124 1    
   113   57   58 2    
   114   57   59 am   BACKBONE|DICT|INTERRES
   115   59   60 1    
   116   59  125 1    
   117   60   61 1    
   118   60   62 1    
   119   60  126 1    
   120   61  127 1    
   121   61  128 1    
   122   61  129 1    
   123   62   63 2    
   124   62   64 am   BACKBONE|DICT|INTERRES
   125   64   65 1    
   126   64  130 1    
   127   65   66 1    
   128   65   69 1    
   129   65  131 1    
   130   66   67 am   BACKBONE|DICT|INTERRES
   131   66   68 2    
   132   67  132 1    
   133   67  133 1    
   134   69   70 1    
   135   69  134 1    
   136   69  135 1    
   137   70   71 1    
   138   71  136 1    
   139   71  137 1    
@<TRIPOS>SUBSTRUCTURE
     1 UNK         1 GROUP             0       ****    0 ROOT    
