@<TRIPOS>MOLECULE
3R137
137   139    1
SMALL
USER_CHARGES


@<TRIPOS>ATOM
      1 CA         33.0755   -5.3865   -3.4308 C.3       0 UNK        -0.2020 
      2 C          31.7913   -5.7434   -2.6977 C.2       0 UNK         0.4855 
      3 O          31.6557   -6.8680   -2.2148 O.2       0 UNK        -0.5197 
      4 N          30.8542   -4.7939   -2.6113 N.am      1 UNK        -0.4892 
      5 CA         29.5314   -4.9796   -2.0121 C.3       1 UNK         0.0835 
      6 C6         29.0046   -3.6870   -1.3377 C.3       12 UNK        -0.0855 
      7 S7         29.8263   -3.3416    0.2520 S.3       12 UNK        -0.2931 
      8 C8         31.1410   -2.1735   -0.2299 C.3       12 UNK         0.0378 
      9 C9         30.6276   -0.8789   -0.8545 C.ar      12 UNK        -0.0802 
     10 C10        31.2230   -0.3987   -2.0238 C.ar      12 UNK        -0.0944 
     11 C11        30.8054    0.8056   -2.5953 C.ar      12 UNK        -0.0787 
     12 C12        29.7875    1.5400   -1.9833 C.ar      12 UNK        -0.0862 
     13 C13        29.1657    1.0643   -0.8255 C.ar      12 UNK        -0.0733 
     14 C14        29.5955   -0.1422   -0.2611 C.ar      12 UNK        -0.0832 
     15 C15        28.0458    1.8612   -0.1720 C.3       12 UNK         0.0240 
     16 S16        26.4301    1.5324   -0.9492 S.3       12 UNK        -0.2522 
     17 C17        26.4828    2.6063   -2.4270 C.3       12 UNK        -0.0967 
     18 CA         26.4827    1.8047   -3.7570 C.3       5 UNK         0.0660 
     19 N          25.2601    0.9989   -3.8870 N.am      5 UNK        -0.4015 
     20 C          25.1058   -0.0862   -4.6539 C.2       4 UNK         0.4946 
     21 O          25.9938   -0.5535   -5.3733 O.2       4 UNK        -0.5353 
     22 CA         23.7083   -0.7104   -4.6777 C.3       4 UNK         0.0277 
     23 CB         22.8034    0.0075   -5.6951 C.3       4 UNK        -0.1981 
     24 N          23.8476   -2.1135   -5.0451 N.am      4 UNK        -0.4209 
     25 C          23.0604   -3.1106   -4.6281 C.2       3 UNK         0.4942 
     26 O          22.0367   -2.9381   -3.9644 O.2       3 UNK        -0.5208 
     27 CA         23.4741   -4.5498   -5.0001 C.3       3 UNK         0.0250 
     28 CB         22.5974   -5.0767   -6.1487 C.3       3 UNK        -0.1990 
     29 N          24.8883   -4.7258   -5.3603 N.am      3 UNK        -0.4232 
     30 C          25.9329   -4.4810   -4.5562 C.2       2 UNK         0.4993 
     31 O          25.8209   -4.0218   -3.4165 O.2       2 UNK        -0.5286 
     32 CA         27.3280   -4.7770   -5.1474 C.3       2 UNK         0.0209 
     33 CB         27.6345   -3.8301   -6.3202 C.3       2 UNK        -0.1931 
     34 N          28.3931   -4.6456   -4.1485 N.am      2 UNK        -0.4546 
     35 C          28.5490   -5.4572   -3.0924 C.2       1 UNK         0.5154 
     36 O          27.9494   -6.5249   -2.9501 O.2       1 UNK        -0.5181 
     37 C          26.6912    2.7214   -4.9898 C.2       5 UNK         0.5014 
     38 O          26.9291    3.9214   -4.8367 O.2       5 UNK        -0.5248 
     39 N          26.5625    2.1540   -6.1942 N.am      6 UNK        -0.4434 
     40 CA         26.6877    2.8419   -7.4732 C.3       6 UNK         0.0363 
     41 CB         25.7149    2.2034   -8.4800 C.3       6 UNK        -0.1936 
     42 C          28.1381    2.7497   -7.9571 C.2       6 UNK         0.5081 
     43 O          28.5441    1.7049   -8.4690 O.2       6 UNK        -0.5248 
     44 N          28.8964    3.8433   -7.8028 N.am      7 UNK        -0.4718 
     45 CA         30.3031    3.9479   -8.2139 C.3       7 UNK         0.0273 
     46 CB         30.8603    5.3200   -7.8052 C.3       7 UNK        -0.1935 
     47 C          30.5230    3.6939   -9.7150 C.2       7 UNK         0.5018 
     48 O          31.5027    3.0466  -10.0840 O.2       7 UNK        -0.5186 
     49 N          29.5669    4.1398  -10.5424 N.am      8 UNK        -0.4240 
     50 CA         29.5207    3.9019  -11.9883 C.3       8 UNK         0.0235 
     51 CB         28.3917    4.7475  -12.5999 C.3       8 UNK        -0.2000 
     52 C          29.3513    2.4199  -12.3773 C.2       8 UNK         0.4941 
     53 O          29.7292    2.0512  -13.4897 O.2       8 UNK        -0.5273 
     54 N          28.8070    1.5985  -11.4674 N.am      9 UNK        -0.4262 
     55 CA         28.6598    0.1508  -11.6314 C.3       9 UNK         0.0264 
     56 CB         27.3295   -0.2899  -10.9950 C.3       9 UNK        -0.1955 
     57 C          29.8380   -0.6324  -11.0206 C.2       9 UNK         0.5031 
     58 O          29.8215   -1.8618  -11.0952 O.2       9 UNK        -0.5390 
     59 N          30.8205    0.0712  -10.4305 N.am      10 UNK        -0.4204 
     60 CA         31.9822   -0.4496   -9.7021 C.3       10 UNK         0.0237 
     61 CB         32.9384   -1.2089  -10.6473 C.3       10 UNK        -0.1985 
     62 C          31.5555   -1.2760   -8.4751 C.2       10 UNK         0.4970 
     63 O          31.7777   -2.4874   -8.4340 O.2       10 UNK        -0.4914 
     64 N          30.9300   -0.5930   -7.5073 N.am      11 UNK        -0.4285 
     65 CA         30.4019   -1.1585   -6.2544 C.3       11 UNK         0.1007 
     66 C          31.4037   -1.9064   -5.3286 C.2       11 UNK         0.5703 
     67 N          32.7115   -1.7386   -5.4822 N.am      11 UNK        -0.7361 
     68 O          30.9759   -2.6591   -4.4554 O.2       11 UNK        -0.4986 
     69 C69        29.5563   -0.1271   -5.4582 C.3       12 UNK        -0.0947 
     70 S70        30.3219    1.5228   -5.2555 S.3       12 UNK        -0.2240 
     71 C71        31.4750    1.3233   -3.8592 C.3       12 UNK         0.0194 
     72 H72        33.1703   -5.9863   -4.3355 H         1 UNK         0.0906 
     73 H73        33.9386   -5.5858   -2.7963 H         1 UNK         0.0906 
     74 H74        33.1022   -4.3353   -3.7155 H         1 UNK         0.0906 
     75 H75        30.9936   -3.9174   -3.1113 H         1 UNK         0.3140 
     76 H76        29.5777   -5.7631   -1.2519 H         1 UNK         0.1085 
     77 H77        29.0939   -2.8282   -2.0056 H         1 UNK         0.0836 
     78 H78        27.9384   -3.7778   -1.1179 H         1 UNK         0.0836 
     79 H79        31.8250   -2.6859   -0.9081 H         1 UNK         0.0731 
     80 H80        31.7236   -1.9216    0.6569 H         1 UNK         0.0731 
     81 H81        32.0228   -0.9603   -2.4865 H         1 UNK         0.1312 
     82 H82        29.4792    2.4789   -2.4200 H         1 UNK         0.1406 
     83 H83        29.1289   -0.5087    0.6433 H         1 UNK         0.1631 
     84 H84        28.2689    2.9287   -0.2036 H         1 UNK         0.0717 
     85 H85        27.9769    1.6032    0.8859 H         1 UNK         0.0717 
     86 H86        25.6210    3.2754   -2.3889 H         1 UNK         0.0934 
     87 H87        27.3548    3.2581   -2.3643 H         1 UNK         0.0934 
     88 H88        27.3369    1.1244   -3.7341 H         1 UNK         0.0739 
     89 H89        24.4693    1.3257   -3.3512 H         1 UNK         0.3093 
     90 H90        23.2765   -0.6341   -3.6771 H         1 UNK         0.0818 
     91 H91        22.6849    1.0619   -5.4425 H         1 UNK         0.0819 
     92 H92        23.2145   -0.0427   -6.7043 H         1 UNK         0.0819 
     93 H93        21.8065   -0.4330   -5.7183 H         1 UNK         0.0819 
     94 H94        24.7063   -2.3286   -5.5364 H         1 UNK         0.3041 
     95 H95        23.2873   -5.1676   -4.1192 H         1 UNK         0.0784 
     96 H96        21.5378   -4.9941   -5.9021 H         1 UNK         0.0793 
     97 H97        22.7612   -4.5168   -7.0704 H         1 UNK         0.0793 
     98 H98        22.7973   -6.1289   -6.3526 H         1 UNK         0.0793 
     99 H99        25.0671   -5.0897   -6.2855 H         1 UNK         0.3024 
    100 H100       27.3282   -5.8073   -5.5107 H         1 UNK         0.1171 
    101 H101       26.9170   -3.9519   -7.1323 H         1 UNK         0.0786 
    102 H102       27.5966   -2.7850   -6.0096 H         1 UNK         0.0786 
    103 H103       28.6213   -4.0283   -6.7392 H         1 UNK         0.0786 
    104 H104       28.9492   -3.8023   -4.1872 H         1 UNK         0.2977 
    105 H105       26.4257    1.1470   -6.2246 H         1 UNK         0.3127 
    106 H106       26.4134    3.8935   -7.3643 H         1 UNK         0.0770 
    107 H107       25.8739    1.1288   -8.5728 H         1 UNK         0.0814 
    108 H108       25.8329    2.6401   -9.4725 H         1 UNK         0.0814 
    109 H109       24.6791    2.3585   -8.1778 H         1 UNK         0.0814 
    110 H110       28.4965    4.6471   -7.3384 H         1 UNK         0.2983 
    111 H111       30.8621    3.1807   -7.6750 H         1 UNK         0.0947 
    112 H112       31.9102    5.4142   -8.0869 H         1 UNK         0.0806 
    113 H113       30.8031    5.4647   -6.7261 H         1 UNK         0.0806 
    114 H114       30.3193    6.1372   -8.2839 H         1 UNK         0.0806 
    115 H115       28.7960    4.6534  -10.1403 H         1 UNK         0.3000 
    116 H116       30.4701    4.2395  -12.4097 H         1 UNK         0.0850 
    117 H117       28.3493    4.6177  -13.6824 H         1 UNK         0.0810 
    118 H118       28.5428    5.8104  -12.4099 H         1 UNK         0.0810 
    119 H119       27.4157    4.4686  -12.2004 H         1 UNK         0.0810 
    120 H120       28.5648    1.9606  -10.5516 H         1 UNK         0.3040 
    121 H121       28.6209   -0.0971  -12.6942 H         1 UNK         0.0766 
    122 H122       27.3503   -0.1889   -9.9099 H         1 UNK         0.0812 
    123 H123       27.1213   -1.3375  -11.2157 H         1 UNK         0.0812 
    124 H124       26.4904    0.2935  -11.3741 H         1 UNK         0.0812 
    125 H125       30.7409    1.0817  -10.4322 H         1 UNK         0.3205 
    126 H126       32.5233    0.4192   -9.3234 H         1 UNK         0.0754 
    127 H127       33.8390   -1.5222  -10.1179 H         1 UNK         0.0769 
    128 H128       33.2536   -0.5793  -11.4794 H         1 UNK         0.0769 
    129 H129       32.4793   -2.1066  -11.0625 H         1 UNK         0.0769 
    130 H130       30.7501    0.3921   -7.6387 H         1 UNK         0.2981 
    131 H131       29.7126   -1.9361   -6.5786 H         1 UNK         0.0541 
    132 H132       33.3502   -2.2345   -4.8835 H         1 UNK         0.3459 
    133 H133       33.0655   -1.1365   -6.2067 H         1 UNK         0.3459 
    134 H134       29.2474   -0.5172   -4.4867 H         1 UNK         0.0612 
    135 H135       28.6249    0.0370   -6.0009 H         1 UNK         0.0612 
    136 H136       32.2966    0.6751   -4.1632 H         1 UNK         0.0624 
    137 H137       31.9241    2.2936   -3.6439 H         1 UNK         0.0624 
@<TRIPOS>BOND
     1    1    2 1    
     2    1   72 1    
     3    1   73 1    
     4    1   74 1    
     5    2    3 2    
     6    2    4 am   BACKBONE|DICT|INTERRES
     7    4    5 1    
     8    4   75 1    
     9    5    6 1    
    10    5   35 1    
    11    5   76 1    
    12    6    7 1    
    13    6   77 1    
    14    6   78 1    
    15    7    8 1    
    16    8    9 1    
    17    8   79 1    
    18    8   80 1    
    19    9   10 ar   
    20    9   14 ar   
    21   10   11 ar   
    22   10   81 1    
    23   11   12 ar   
    24   11   71 1    
    25   12   13 ar   
    26   12   82 1    
    27   13   14 ar   
    28   13   15 1    
    29   14   83 1    
    30   15   16 1    
    31   15   84 1    
    32   15   85 1    
    33   16   17 1    
    34   17   18 1    
    35   17   86 1    
    36   17   87 1    
    37   18   19 1    
    38   18   37 1    
    39   18   88 1    
    40   19   20 am   BACKBONE|DICT|INTERRES
    41   19   89 1    
    42   20   21 2    
    43   20   22 1    
    44   22   23 1    
    45   22   24 1    
    46   22   90 1    
    47   23   91 1    
    48   23   92 1    
    49   23   93 1    
    50   24   25 am   BACKBONE|DICT|INTERRES
    51   24   94 1    
    52   25   26 2    
    53   25   27 1    
    54   27   28 1    
    55   27   29 1    
    56   27   95 1    
    57   28   96 1    
    58   28   97 1    
    59   28   98 1    
    60   29   30 am   BACKBONE|DICT|INTERRES
    61   29   99 1    
    62   30   31 2    
    63   30   32 1    
    64   32   33 1    
    65   32   34 1    
    66   32  100 1    
    67   33  101 1    
    68   33  102 1    
    69   33  103 1    
    70   34   35 am   BACKBONE|DICT|INTERRES
    71   34  104 1    
    72   35   36 2    
    73   37   38 2    
    74   37   39 am   BACKBONE|DICT|INTERRES
    75   39   40 1    
    76   39  105 1    
    77   40   41 1    
    78   40   42 1    
    79   40  106 1    
    80   41  107 1    
    81   41  108 1    
    82   41  109 1    
    83   42   43 2    
    84   42   44 am   BACKBONE|DICT|INTERRES
    85   44   45 1    
    86   44  110 1    
    87   45   46 1    
    88   45   47 1    
    89   45  111 1    
    90   46  112 1    
    91   46  113 1    
    92   46  114 1    
    93   47   48 2    
    94   47   49 am   BACKBONE|DICT|INTERRES
    95   49   50 1    
    96   49  115 1    
    97   50   51 1    
    98   50   52 1    
    99   50  116 1    
   100   51  117 1    
   101   51  118 1    
   102   51  119 1    
   103   52   53 2    
   104   52   54 am   BACKBONE|DICT|INTERRES
   105   54   55 1    
   106   54  120 1    
   107   55   56 1    
   108   55   57 1    
   109   55  121 1    
   110   56  122 1    
   111   56  123 1    
   112   56  124 1    
   113   57   58 2    
   114   57   59 am   BACKBONE|DICT|INTERRES
   115   59   60 1    
   116   59  125 1    
   117   60   61 1    
   118   60   62 1    
   119   60  126 1    
   120   61  127 1    
   121   61  128 1    
   122   61  129 1    
   123   62   63 2    
   124   62   64 am   BACKBONE|DICT|INTERRES
   125   64   65 1    
   126   64  130 1    
   127   65   66 1    
   128   65   69 1    
   129   65  131 1    
   130   66   67 am   BACKBONE|DICT|INTERRES
   131   66   68 2    
   132   67  132 1    
   133   67  133 1    
   134   69   70 1    
   135   69  134 1    
   136   69  135 1    
   137   70   71 1    
   138   71  136 1    
   139   71  137 1    
@<TRIPOS>SUBSTRUCTURE
     1 UNK         1 GROUP             0       ****    0 ROOT    
