@<TRIPOS>MOLECULE
3R137
137   139    1
SMALL
USER_CHARGES


@<TRIPOS>ATOM
      1 CA         25.3304   -4.8909   -3.2004 C.3       0 UNK        -0.2020 
      2 C          25.7873   -4.2286   -1.9106 C.2       0 UNK         0.4855 
      3 O          24.9472   -3.8249   -1.1058 O.2       0 UNK        -0.5197 
      4 N          27.1077   -4.1355   -1.6970 N.am      1 UNK        -0.4892 
      5 CA         27.7144   -3.5066   -0.5151 C.3       1 UNK         0.0835 
      6 C6         29.1991   -3.9017   -0.3009 C.3       12 UNK        -0.0855 
      7 S7         29.4470   -5.7125   -0.3499 S.3       12 UNK        -0.2931 
      8 C8         31.0655   -5.8808   -1.1780 C.3       12 UNK         0.0378 
      9 C9         31.1452   -5.1717   -2.5268 C.ar      12 UNK        -0.0802 
     10 C10        32.1585   -4.2335   -2.7559 C.ar      12 UNK        -0.0944 
     11 C11        32.2558   -3.5822   -3.9879 C.ar      12 UNK        -0.0787 
     12 C12        31.3364   -3.8754   -4.9937 C.ar      12 UNK        -0.0862 
     13 C13        30.2983   -4.7815   -4.7707 C.ar      12 UNK        -0.0733 
     14 C14        30.2183   -5.4449   -3.5412 C.ar      12 UNK        -0.0832 
     15 C15        29.2611   -5.0219   -5.8585 C.3       12 UNK         0.0240 
     16 S16        27.7566   -4.0287   -5.5871 S.3       12 UNK        -0.2522 
     17 C17        28.3587   -2.3111   -5.7356 C.3       12 UNK        -0.0967 
     18 CA         27.5518   -1.4729   -6.7537 C.3       5 UNK         0.0660 
     19 N          26.1281   -1.3924   -6.4127 N.am      5 UNK        -0.4015 
     20 C          25.1710   -1.0033   -7.2670 C.2       4 UNK         0.4946 
     21 O          25.3914   -0.6940   -8.4374 O.2       4 UNK        -0.5353 
     22 CA         23.7358   -0.8876   -6.7203 C.3       4 UNK         0.0277 
     23 CB         23.0100   -2.2372   -6.8348 C.3       4 UNK        -0.1981 
     24 N          23.6710   -0.4141   -5.3347 N.am      4 UNK        -0.4209 
     25 C          24.1585    0.7552   -4.8972 C.2       3 UNK         0.4942 
     26 O          24.6738    1.5947   -5.6354 O.2       3 UNK        -0.5208 
     27 CA         24.1481    1.0069   -3.3766 C.3       3 UNK         0.0250 
     28 CB         23.1581    0.1079   -2.6004 C.3       3 UNK        -0.1990 
     29 N          25.4976    0.8938   -2.8024 N.am      3 UNK        -0.4232 
     30 C          26.3203   -0.1615   -2.9061 C.2       2 UNK         0.4993 
     31 O          26.0428   -1.1801   -3.5446 O.2       2 UNK        -0.5286 
     32 CA         27.7049   -0.0777   -2.2386 C.3       2 UNK         0.0209 
     33 CB         27.8766    1.0727   -1.2192 C.3       2 UNK        -0.1931 
     34 N          28.0446   -1.3942   -1.6860 N.am      2 UNK        -0.4546 
     35 C          27.5367   -1.9783   -0.5888 C.2       1 UNK         0.5154 
     36 O          26.9108   -1.3928    0.2960 O.2       1 UNK        -0.5181 
     37 C          28.1809   -0.0729   -6.9103 C.2       5 UNK         0.5014 
     38 O          29.1007    0.0871   -7.7145 O.2       5 UNK        -0.5248 
     39 N          27.6732    0.9168   -6.1599 N.am      6 UNK        -0.4434 
     40 CA         28.0855    2.3167   -6.2673 C.3       6 UNK         0.0363 
     41 CB         27.7199    3.0818   -4.9860 C.3       6 UNK        -0.1936 
     42 C          27.4811    2.9813   -7.5122 C.2       6 UNK         0.5081 
     43 O          28.1842    3.7224   -8.1964 O.2       6 UNK        -0.5248 
     44 N          26.2179    2.6576   -7.8271 N.am      7 UNK        -0.4718 
     45 CA         25.5369    3.0573   -9.0641 C.3       7 UNK         0.0273 
     46 CB         24.0564    2.6521   -8.9935 C.3       7 UNK        -0.1935 
     47 C          26.2060    2.4782  -10.3247 C.2       7 UNK         0.5018 
     48 O          26.3233    3.1840  -11.3267 O.2       7 UNK        -0.5186 
     49 N          26.6779    1.2262  -10.2341 N.am      8 UNK        -0.4240 
     50 CA         27.5018    0.5596  -11.2481 C.3       8 UNK         0.0235 
     51 CB         27.4837   -0.9559  -10.9868 C.3       8 UNK        -0.2000 
     52 C          28.9564    1.0711  -11.3078 C.2       8 UNK         0.4941 
     53 O          29.6686    0.7146  -12.2472 O.2       8 UNK        -0.5273 
     54 N          29.3742    1.8734  -10.3159 N.am      9 UNK        -0.4262 
     55 CA         30.7077    2.4541  -10.1258 C.3       9 UNK         0.0264 
     56 CB         31.0295    3.4704  -11.2423 C.3       9 UNK        -0.1955 
     57 C          31.8140    1.3995   -9.9281 C.2       9 UNK         0.5031 
     58 O          32.9389    1.5978  -10.3924 O.2       9 UNK        -0.5390 
     59 N          31.4882    0.3029   -9.2286 N.am      10 UNK        -0.4204 
     60 CA         32.4359   -0.7591   -8.8776 C.3       10 UNK         0.0237 
     61 CB         31.6604   -2.0348   -8.5174 C.3       10 UNK        -0.1985 
     62 C          33.3807   -0.3478   -7.7339 C.2       10 UNK         0.4970 
     63 O          34.5301   -0.7888   -7.7138 O.2       10 UNK        -0.4914 
     64 N          32.8878    0.5011   -6.8268 N.am      11 UNK        -0.4285 
     65 CA         33.6217    1.1303   -5.7238 C.3       11 UNK         0.1007 
     66 C          32.8375    2.3548   -5.1800 C.2       11 UNK         0.5703 
     67 N          33.4435    3.1471   -4.3061 N.am      11 UNK        -0.7361 
     68 O          31.6904    2.6026   -5.5493 O.2       11 UNK        -0.4986 
     69 C69        34.0672    0.1356   -4.6110 C.3       12 UNK        -0.0947 
     70 S70        32.7109   -0.8709   -3.9169 S.3       12 UNK        -0.2240 
     71 C71        33.3367   -2.5469   -4.2428 C.3       12 UNK         0.0194 
     72 H72        24.4365   -5.4890   -3.0253 H         1 UNK         0.0906 
     73 H73        25.0932   -4.1310   -3.9448 H         1 UNK         0.0906 
     74 H74        26.0975   -5.5489   -3.6076 H         1 UNK         0.0906 
     75 H75        27.7522   -4.4965   -2.3851 H         1 UNK         0.3140 
     76 H76        27.1590   -3.8525    0.3602 H         1 UNK         0.1085 
     77 H77        29.8358   -3.4234   -1.0457 H         1 UNK         0.0836 
     78 H78        29.5488   -3.5374    0.6668 H         1 UNK         0.0836 
     79 H79        31.2748   -6.9410   -1.3263 H         1 UNK         0.0731 
     80 H80        31.8365   -5.5101   -0.5006 H         1 UNK         0.0731 
     81 H81        32.8719   -4.0053   -1.9756 H         1 UNK         0.1312 
     82 H82        31.4194   -3.3731   -5.9454 H         1 UNK         0.1406 
     83 H83        29.4267   -6.1611   -3.3666 H         1 UNK         0.1631 
     84 H84        28.9883   -6.0780   -5.8783 H         1 UNK         0.0717 
     85 H85        29.6719   -4.7942   -6.8435 H         1 UNK         0.0717 
     86 H86        28.3352   -1.8567   -4.7452 H         1 UNK         0.0934 
     87 H87        29.4051   -2.3226   -6.0314 H         1 UNK         0.0934 
     88 H88        27.6316   -1.9672   -7.7241 H         1 UNK         0.0739 
     89 H89        25.8892   -1.5824   -5.4424 H         1 UNK         0.3093 
     90 H90        23.2066   -0.1607   -7.3393 H         1 UNK         0.0818 
     91 H91        21.9643   -2.1529   -6.5383 H         1 UNK         0.0819 
     92 H92        23.0246   -2.6010   -7.8633 H         1 UNK         0.0819 
     93 H93        23.4764   -3.0021   -6.2122 H         1 UNK         0.0819 
     94 H94        23.3065   -1.0592   -4.6487 H         1 UNK         0.3041 
     95 H95        23.8319    2.0425   -3.2422 H         1 UNK         0.0784 
     96 H96        22.1495    0.1843   -3.0091 H         1 UNK         0.0793 
     97 H97        23.4476   -0.9438   -2.6156 H         1 UNK         0.0793 
     98 H98        23.1000    0.4107   -1.5548 H         1 UNK         0.0793 
     99 H99        25.8191    1.6982   -2.2826 H         1 UNK         0.3024 
    100 H100       28.4162    0.1005   -3.0468 H         1 UNK         0.1171 
    101 H101       28.8424    1.0094   -0.7177 H         1 UNK         0.0786 
    102 H102       27.8400    2.0451   -1.7110 H         1 UNK         0.0786 
    103 H103       27.1040    1.0670   -0.4498 H         1 UNK         0.0786 
    104 H104       28.5034   -2.0108   -2.3408 H         1 UNK         0.2977 
    105 H105       26.8607    0.7263   -5.5909 H         1 UNK         0.3127 
    106 H106       29.1717    2.3483   -6.3738 H         1 UNK         0.0770 
    107 H107       26.6458    3.0922   -4.8027 H         1 UNK         0.0814 
    108 H108       28.0468    4.1203   -5.0519 H         1 UNK         0.0814 
    109 H109       28.2097    2.6470   -4.1155 H         1 UNK         0.0814 
    110 H110       25.6805    2.1034   -7.1646 H         1 UNK         0.2983 
    111 H111       25.5907    4.1460   -9.1330 H         1 UNK         0.0947 
    112 H112       23.5155    3.0004   -9.8743 H         1 UNK         0.0806 
    113 H113       23.5675    3.0833   -8.1196 H         1 UNK         0.0806 
    114 H114       23.9354    1.5701   -8.9446 H         1 UNK         0.0806 
    115 H115       26.4427    0.6800   -9.4099 H         1 UNK         0.3000 
    116 H116       27.0531    0.7438  -12.2265 H         1 UNK         0.0850 
    117 H117       28.0345   -1.4941  -11.7593 H         1 UNK         0.0810 
    118 H118       26.4661   -1.3471  -10.9830 H         1 UNK         0.0810 
    119 H119       27.9418   -1.2026  -10.0289 H         1 UNK         0.0810 
    120 H120       28.7046    2.1146   -9.5958 H         1 UNK         0.3040 
    121 H121       30.6602    3.0079   -9.1870 H         1 UNK         0.0766 
    122 H122       31.1548    2.9836  -12.2098 H         1 UNK         0.0812 
    123 H123       31.9536    4.0084  -11.0275 H         1 UNK         0.0812 
    124 H124       30.2386    4.2142  -11.3397 H         1 UNK         0.0812 
    125 H125       30.5486    0.2280   -8.8386 H         1 UNK         0.3205 
    126 H126       33.0522   -0.9758   -9.7529 H         1 UNK         0.0754 
    127 H127       32.3405   -2.8477   -8.2593 H         1 UNK         0.0769 
    128 H128       31.0477   -2.3749   -9.3526 H         1 UNK         0.0769 
    129 H129       31.0017   -1.8701   -7.6665 H         1 UNK         0.0769 
    130 H130       31.9349    0.8281   -6.9179 H         1 UNK         0.2981 
    131 H131       34.5251    1.5520   -6.1680 H         1 UNK         0.0541 
    132 H132       34.3852    2.9634   -3.9975 H         1 UNK         0.3459 
    133 H133       32.9461    3.9471   -3.9483 H         1 UNK         0.3459 
    134 H134       34.5526    0.6631   -3.7887 H         1 UNK         0.0612 
    135 H135       34.8367   -0.5257   -5.0106 H         1 UNK         0.0612 
    136 H136       33.6745   -2.6162   -5.2784 H         1 UNK         0.0624 
    137 H137       34.2086   -2.7378   -3.6154 H         1 UNK         0.0624 
@<TRIPOS>BOND
     1    1    2 1    
     2    1   72 1    
     3    1   73 1    
     4    1   74 1    
     5    2    3 2    
     6    2    4 am   BACKBONE|DICT|INTERRES
     7    4    5 1    
     8    4   75 1    
     9    5    6 1    
    10    5   35 1    
    11    5   76 1    
    12    6    7 1    
    13    6   77 1    
    14    6   78 1    
    15    7    8 1    
    16    8    9 1    
    17    8   79 1    
    18    8   80 1    
    19    9   10 ar   
    20    9   14 ar   
    21   10   11 ar   
    22   10   81 1    
    23   11   12 ar   
    24   11   71 1    
    25   12   13 ar   
    26   12   82 1    
    27   13   14 ar   
    28   13   15 1    
    29   14   83 1    
    30   15   16 1    
    31   15   84 1    
    32   15   85 1    
    33   16   17 1    
    34   17   18 1    
    35   17   86 1    
    36   17   87 1    
    37   18   19 1    
    38   18   37 1    
    39   18   88 1    
    40   19   20 am   BACKBONE|DICT|INTERRES
    41   19   89 1    
    42   20   21 2    
    43   20   22 1    
    44   22   23 1    
    45   22   24 1    
    46   22   90 1    
    47   23   91 1    
    48   23   92 1    
    49   23   93 1    
    50   24   25 am   BACKBONE|DICT|INTERRES
    51   24   94 1    
    52   25   26 2    
    53   25   27 1    
    54   27   28 1    
    55   27   29 1    
    56   27   95 1    
    57   28   96 1    
    58   28   97 1    
    59   28   98 1    
    60   29   30 am   BACKBONE|DICT|INTERRES
    61   29   99 1    
    62   30   31 2    
    63   30   32 1    
    64   32   33 1    
    65   32   34 1    
    66   32  100 1    
    67   33  101 1    
    68   33  102 1    
    69   33  103 1    
    70   34   35 am   BACKBONE|DICT|INTERRES
    71   34  104 1    
    72   35   36 2    
    73   37   38 2    
    74   37   39 am   BACKBONE|DICT|INTERRES
    75   39   40 1    
    76   39  105 1    
    77   40   41 1    
    78   40   42 1    
    79   40  106 1    
    80   41  107 1    
    81   41  108 1    
    82   41  109 1    
    83   42   43 2    
    84   42   44 am   BACKBONE|DICT|INTERRES
    85   44   45 1    
    86   44  110 1    
    87   45   46 1    
    88   45   47 1    
    89   45  111 1    
    90   46  112 1    
    91   46  113 1    
    92   46  114 1    
    93   47   48 2    
    94   47   49 am   BACKBONE|DICT|INTERRES
    95   49   50 1    
    96   49  115 1    
    97   50   51 1    
    98   50   52 1    
    99   50  116 1    
   100   51  117 1    
   101   51  118 1    
   102   51  119 1    
   103   52   53 2    
   104   52   54 am   BACKBONE|DICT|INTERRES
   105   54   55 1    
   106   54  120 1    
   107   55   56 1    
   108   55   57 1    
   109   55  121 1    
   110   56  122 1    
   111   56  123 1    
   112   56  124 1    
   113   57   58 2    
   114   57   59 am   BACKBONE|DICT|INTERRES
   115   59   60 1    
   116   59  125 1    
   117   60   61 1    
   118   60   62 1    
   119   60  126 1    
   120   61  127 1    
   121   61  128 1    
   122   61  129 1    
   123   62   63 2    
   124   62   64 am   BACKBONE|DICT|INTERRES
   125   64   65 1    
   126   64  130 1    
   127   65   66 1    
   128   65   69 1    
   129   65  131 1    
   130   66   67 am   BACKBONE|DICT|INTERRES
   131   66   68 2    
   132   67  132 1    
   133   67  133 1    
   134   69   70 1    
   135   69  134 1    
   136   69  135 1    
   137   70   71 1    
   138   71  136 1    
   139   71  137 1    
@<TRIPOS>SUBSTRUCTURE
     1 UNK         1 GROUP             0       ****    0 ROOT    
