@<TRIPOS>MOLECULE
3R137
137   139    1
SMALL
USER_CHARGES


@<TRIPOS>ATOM
      1 CA         26.5711   -7.1067    1.5223 C.3       0 UNK        -0.2020 
      2 C          26.5259   -5.5872    1.4634 C.2       0 UNK         0.4855 
      3 O          25.7904   -4.9658    2.2313 O.2       0 UNK        -0.5197 
      4 N          27.3145   -4.9845    0.5659 N.am      1 UNK        -0.4892 
      5 CA         27.3503   -3.5432    0.3014 C.3       1 UNK         0.0835 
      6 C6         28.6272   -3.1065   -0.4674 C.3       12 UNK        -0.0855 
      7 S7         29.2139   -4.2790   -1.7445 S.3       12 UNK        -0.2931 
      8 C8         30.8072   -3.5298   -2.2127 C.3       12 UNK         0.0378 
      9 C9         30.6192   -2.3741   -3.1843 C.ar      12 UNK        -0.0802 
     10 C10        30.6790   -2.5976   -4.5622 C.ar      12 UNK        -0.0944 
     11 C11        30.5058   -1.5426   -5.4653 C.ar      12 UNK        -0.0787 
     12 C12        30.2528   -0.2576   -4.9750 C.ar      12 UNK        -0.0862 
     13 C13        30.1498   -0.0281   -3.5987 C.ar      12 UNK        -0.0733 
     14 C14        30.3700   -1.0842   -2.7103 C.ar      12 UNK        -0.0832 
     15 C15        29.7751    1.3440   -3.0529 C.3       12 UNK         0.0240 
     16 S16        28.1207    1.3128   -2.2764 S.3       12 UNK        -0.2522 
     17 C17        27.0402    2.0580   -3.5477 C.3       12 UNK        -0.0967 
     18 CA         26.9627    1.2552   -4.8687 C.3       5 UNK         0.0660 
     19 N          26.5314   -0.1326   -4.6782 N.am      5 UNK        -0.4015 
     20 C          26.7188   -1.1105   -5.5786 C.2       4 UNK         0.4946 
     21 O          27.2707   -0.9280   -6.6643 O.2       4 UNK        -0.5353 
     22 CA         26.1231   -2.4956   -5.2650 C.3       4 UNK         0.0277 
     23 CB         27.1637   -3.3709   -4.5590 C.3       4 UNK        -0.1981 
     24 N          24.9064   -2.4382   -4.4501 N.am      4 UNK        -0.4209 
     25 C          23.7892   -1.7815   -4.7959 C.2       3 UNK         0.4942 
     26 O          23.6405   -1.2219   -5.8819 O.2       3 UNK        -0.5208 
     27 CA         22.6687   -1.6734   -3.7476 C.3       3 UNK         0.0250 
     28 CB         21.5716   -2.7121   -4.0302 C.3       3 UNK        -0.1990 
     29 N          23.1015   -1.7978   -2.3509 N.am      3 UNK        -0.4232 
     30 C          24.0411   -1.0654   -1.7334 C.2       2 UNK         0.4993 
     31 O          24.7388   -0.2225   -2.2999 O.2       2 UNK        -0.5286 
     32 CA         24.2413   -1.3103   -0.2266 C.3       2 UNK         0.0209 
     33 CB         23.1094   -2.1311    0.4359 C.3       2 UNK        -0.1931 
     34 N          25.5435   -1.9090    0.0888 N.am      2 UNK        -0.4546 
     35 C          26.0479   -3.0627   -0.3767 C.2       1 UNK         0.5154 
     36 O          25.5270   -3.7399   -1.2683 O.2       1 UNK        -0.5181 
     37 C          26.1712    2.0125   -5.9585 C.2       5 UNK         0.5014 
     38 O          26.5631    3.1309   -6.2893 O.2       5 UNK        -0.5248 
     39 N          25.1296    1.4040   -6.5504 N.am      6 UNK        -0.4434 
     40 CA         24.5147    1.8816   -7.7923 C.3       6 UNK         0.0363 
     41 CB         23.1677    1.1764   -8.0126 C.3       6 UNK        -0.1936 
     42 C          25.4314    1.6851   -9.0171 C.2       6 UNK         0.5081 
     43 O          25.3342    2.4662   -9.9637 O.2       6 UNK        -0.5248 
     44 N          26.3087    0.6677   -8.9833 N.am      7 UNK        -0.4718 
     45 CA         27.3288    0.4267  -10.0108 C.3       7 UNK         0.0273 
     46 CB         27.7164   -1.0602  -10.0062 C.3       7 UNK        -0.1935 
     47 C          28.5663    1.3217   -9.8132 C.2       7 UNK         0.5018 
     48 O          29.2418    1.6393  -10.7938 O.2       7 UNK        -0.5186 
     49 N          28.8124    1.7296   -8.5571 N.am      8 UNK        -0.4240 
     50 CA         29.7795    2.7353   -8.1022 C.3       8 UNK         0.0235 
     51 CB         29.2269    4.1501   -8.3937 C.3       8 UNK        -0.2000 
     52 C          31.1980    2.5042   -8.6566 C.2       8 UNK         0.4941 
     53 O          31.8619    1.5516   -8.2439 O.2       8 UNK        -0.5273 
     54 N          31.6176    3.3633   -9.5978 N.am      9 UNK        -0.4262 
     55 CA         32.9207    3.3737  -10.2675 C.3       9 UNK         0.0264 
     56 CB         32.9778    4.5682  -11.2335 C.3       9 UNK        -0.1955 
     57 C          33.2903    2.0731  -11.0017 C.2       9 UNK         0.5031 
     58 O          34.4789    1.8472  -11.2332 O.2       9 UNK        -0.5390 
     59 N          32.3027    1.2179  -11.3108 N.am      10 UNK        -0.4204 
     60 CA         32.5098   -0.1366  -11.8357 C.3       10 UNK         0.0237 
     61 CB         31.1473   -0.7866  -12.1154 C.3       10 UNK        -0.1985 
     62 C          33.3440   -1.0402  -10.9050 C.2       10 UNK         0.4970 
     63 O          34.0284   -1.9354  -11.4022 O.2       10 UNK        -0.4914 
     64 N          33.2910   -0.7785   -9.5919 N.am      11 UNK        -0.4285 
     65 CA         34.1249   -1.4299   -8.5714 C.3       11 UNK         0.1007 
     66 C          35.4768   -0.7009   -8.3117 C.2       11 UNK         0.5703 
     67 N          35.8248    0.3625   -9.0285 N.am      11 UNK        -0.7361 
     68 O          36.2455   -1.1224   -7.4506 O.2       11 UNK        -0.4986 
     69 C69        33.3314   -1.6666   -7.2603 C.3       12 UNK        -0.0947 
     70 S70        31.9318   -2.8067   -7.5176 S.3       12 UNK        -0.2240 
     71 C71        30.5219   -1.7925   -6.9705 C.3       12 UNK         0.0194 
     72 H72        27.2723   -7.5221    0.7986 H         1 UNK         0.0906 
     73 H73        26.8749   -7.4353    2.5158 H         1 UNK         0.0906 
     74 H74        25.5844   -7.5193    1.3134 H         1 UNK         0.0906 
     75 H75        27.8781   -5.5374   -0.0659 H         1 UNK         0.3140 
     76 H76        27.3916   -3.0556    1.2786 H         1 UNK         0.1085 
     77 H77        29.4388   -2.9816    0.2512 H         1 UNK         0.0836 
     78 H78        28.4842   -2.1241   -0.9202 H         1 UNK         0.0836 
     79 H79        31.4326   -4.2982   -2.6697 H         1 UNK         0.0731 
     80 H80        31.3419   -3.1970   -1.3218 H         1 UNK         0.0731 
     81 H81        30.8514   -3.5984   -4.9334 H         1 UNK         0.1312 
     82 H82        30.1056    0.5547   -5.6716 H         1 UNK         0.1406 
     83 H83        30.3122   -0.9030   -1.6460 H         1 UNK         0.1631 
     84 H84        29.8140    2.1066   -3.8321 H         1 UNK         0.0717 
     85 H85        30.5091    1.6384   -2.3016 H         1 UNK         0.0717 
     86 H86        26.0428    2.1668   -3.1175 H         1 UNK         0.0934 
     87 H87        27.3998    3.0725   -3.7321 H         1 UNK         0.0934 
     88 H88        27.9741    1.2138   -5.2673 H         1 UNK         0.0739 
     89 H89        26.0261   -0.3272   -3.8178 H         1 UNK         0.3093 
     90 H90        25.8615   -2.9656   -6.2151 H         1 UNK         0.0818 
     91 H91        27.4960   -2.9113   -3.6279 H         1 UNK         0.0819 
     92 H92        26.7705   -4.3603   -4.3251 H         1 UNK         0.0819 
     93 H93        28.0437   -3.5110   -5.1872 H         1 UNK         0.0819 
     94 H94        24.9516   -2.8567   -3.5295 H         1 UNK         0.3041 
     95 H95        22.2322   -0.6785   -3.8566 H         1 UNK         0.0784 
     96 H96        21.2086   -2.6284   -5.0558 H         1 UNK         0.0793 
     97 H97        21.9373   -3.7311   -3.8962 H         1 UNK         0.0793 
     98 H98        20.7124   -2.5730   -3.3738 H         1 UNK         0.0793 
     99 H99        22.6138   -2.4859   -1.7957 H         1 UNK         0.3024 
    100 H100       24.2360   -0.3198    0.2320 H         1 UNK         0.1171 
    101 H101       23.2439   -2.1736    1.5170 H         1 UNK         0.0786 
    102 H102       22.1328   -1.6784    0.2579 H         1 UNK         0.0786 
    103 H103       23.0752   -3.1596    0.0742 H         1 UNK         0.0786 
    104 H104       26.0814   -1.4051    0.7804 H         1 UNK         0.2977 
    105 H105       24.8319    0.4904   -6.2240 H         1 UNK         0.3127 
    106 H106       24.3227    2.9519   -7.6889 H         1 UNK         0.0770 
    107 H107       23.2950    0.1065   -8.1818 H         1 UNK         0.0814 
    108 H108       22.6547    1.5833   -8.8849 H         1 UNK         0.0814 
    109 H109       22.5052    1.3046   -7.1564 H         1 UNK         0.0814 
    110 H110       26.3506    0.0706   -8.1626 H         1 UNK         0.2983 
    111 H111       26.9036    0.6607  -10.9894 H         1 UNK         0.0947 
    112 H112       28.3351   -1.3015  -10.8698 H         1 UNK         0.0806 
    113 H113       26.8361   -1.7012  -10.0563 H         1 UNK         0.0806 
    114 H114       28.2779   -1.3326   -9.1125 H         1 UNK         0.0806 
    115 H115       28.2069    1.3538   -7.8425 H         1 UNK         0.3000 
    116 H116       29.8561    2.6299   -7.0192 H         1 UNK         0.0850 
    117 H117       29.9144    4.9252   -8.0516 H         1 UNK         0.0810 
    118 H118       28.2851    4.3164   -7.8723 H         1 UNK         0.0810 
    119 H119       29.0368    4.3107   -9.4557 H         1 UNK         0.0810 
    120 H120       30.9690    4.0822   -9.8841 H         1 UNK         0.3040 
    121 H121       33.6758    3.5233   -9.4931 H         1 UNK         0.0766 
    122 H122       33.9489    4.6257  -11.7278 H         1 UNK         0.0812 
    123 H123       32.8292    5.5124  -10.7093 H         1 UNK         0.0812 
    124 H124       32.2195    4.4921  -12.0139 H         1 UNK         0.0812 
    125 H125       31.3469    1.4806  -11.0899 H         1 UNK         0.3205 
    126 H126       33.0507   -0.0444  -12.7797 H         1 UNK         0.0754 
    127 H127       30.5848   -0.9282  -11.1928 H         1 UNK         0.0769 
    128 H128       31.2683   -1.7670  -12.5782 H         1 UNK         0.0769 
    129 H129       30.5433   -0.1795  -12.7901 H         1 UNK         0.0769 
    130 H130       32.7211   -0.0072   -9.2593 H         1 UNK         0.2981 
    131 H131       34.4143   -2.4147   -8.9422 H         1 UNK         0.0541 
    132 H132       35.2358    0.7197   -9.7721 H         1 UNK         0.3459 
    133 H133       36.7102    0.8050   -8.8412 H         1 UNK         0.3459 
    134 H134       32.9766   -0.7185   -6.8520 H         1 UNK         0.0612 
    135 H135       33.9666   -2.1113   -6.4924 H         1 UNK         0.0612 
    136 H136       30.5230   -0.8536   -7.5267 H         1 UNK         0.0624 
    137 H137       29.6012   -2.3104   -7.2403 H         1 UNK         0.0624 
@<TRIPOS>BOND
     1    1    2 1    
     2    1   72 1    
     3    1   73 1    
     4    1   74 1    
     5    2    3 2    
     6    2    4 am   BACKBONE|DICT|INTERRES
     7    4    5 1    
     8    4   75 1    
     9    5    6 1    
    10    5   35 1    
    11    5   76 1    
    12    6    7 1    
    13    6   77 1    
    14    6   78 1    
    15    7    8 1    
    16    8    9 1    
    17    8   79 1    
    18    8   80 1    
    19    9   10 ar   
    20    9   14 ar   
    21   10   11 ar   
    22   10   81 1    
    23   11   12 ar   
    24   11   71 1    
    25   12   13 ar   
    26   12   82 1    
    27   13   14 ar   
    28   13   15 1    
    29   14   83 1    
    30   15   16 1    
    31   15   84 1    
    32   15   85 1    
    33   16   17 1    
    34   17   18 1    
    35   17   86 1    
    36   17   87 1    
    37   18   19 1    
    38   18   37 1    
    39   18   88 1    
    40   19   20 am   BACKBONE|DICT|INTERRES
    41   19   89 1    
    42   20   21 2    
    43   20   22 1    
    44   22   23 1    
    45   22   24 1    
    46   22   90 1    
    47   23   91 1    
    48   23   92 1    
    49   23   93 1    
    50   24   25 am   BACKBONE|DICT|INTERRES
    51   24   94 1    
    52   25   26 2    
    53   25   27 1    
    54   27   28 1    
    55   27   29 1    
    56   27   95 1    
    57   28   96 1    
    58   28   97 1    
    59   28   98 1    
    60   29   30 am   BACKBONE|DICT|INTERRES
    61   29   99 1    
    62   30   31 2    
    63   30   32 1    
    64   32   33 1    
    65   32   34 1    
    66   32  100 1    
    67   33  101 1    
    68   33  102 1    
    69   33  103 1    
    70   34   35 am   BACKBONE|DICT|INTERRES
    71   34  104 1    
    72   35   36 2    
    73   37   38 2    
    74   37   39 am   BACKBONE|DICT|INTERRES
    75   39   40 1    
    76   39  105 1    
    77   40   41 1    
    78   40   42 1    
    79   40  106 1    
    80   41  107 1    
    81   41  108 1    
    82   41  109 1    
    83   42   43 2    
    84   42   44 am   BACKBONE|DICT|INTERRES
    85   44   45 1    
    86   44  110 1    
    87   45   46 1    
    88   45   47 1    
    89   45  111 1    
    90   46  112 1    
    91   46  113 1    
    92   46  114 1    
    93   47   48 2    
    94   47   49 am   BACKBONE|DICT|INTERRES
    95   49   50 1    
    96   49  115 1    
    97   50   51 1    
    98   50   52 1    
    99   50  116 1    
   100   51  117 1    
   101   51  118 1    
   102   51  119 1    
   103   52   53 2    
   104   52   54 am   BACKBONE|DICT|INTERRES
   105   54   55 1    
   106   54  120 1    
   107   55   56 1    
   108   55   57 1    
   109   55  121 1    
   110   56  122 1    
   111   56  123 1    
   112   56  124 1    
   113   57   58 2    
   114   57   59 am   BACKBONE|DICT|INTERRES
   115   59   60 1    
   116   59  125 1    
   117   60   61 1    
   118   60   62 1    
   119   60  126 1    
   120   61  127 1    
   121   61  128 1    
   122   61  129 1    
   123   62   63 2    
   124   62   64 am   BACKBONE|DICT|INTERRES
   125   64   65 1    
   126   64  130 1    
   127   65   66 1    
   128   65   69 1    
   129   65  131 1    
   130   66   67 am   BACKBONE|DICT|INTERRES
   131   66   68 2    
   132   67  132 1    
   133   67  133 1    
   134   69   70 1    
   135   69  134 1    
   136   69  135 1    
   137   70   71 1    
   138   71  136 1    
   139   71  137 1    
@<TRIPOS>SUBSTRUCTURE
     1 UNK         1 GROUP             0       ****    0 ROOT    
