@<TRIPOS>MOLECULE
3R137
137   139    1
SMALL
USER_CHARGES


@<TRIPOS>ATOM
      1 CA         24.3582   -3.5130   -3.1918 C.3       0 UNK        -0.2020 
      2 C          25.6637   -2.9063   -2.7015 C.2       0 UNK         0.4855 
      3 O          26.2673   -2.1031   -3.4168 O.2       0 UNK        -0.5197 
      4 N          26.0751   -3.2739   -1.4782 N.am      1 UNK        -0.4892 
      5 CA         27.3450   -2.9222   -0.8156 C.3       1 UNK         0.0835 
      6 C6         28.5742   -3.5838   -1.4871 C.3       12 UNK        -0.0855 
      7 S7         28.4830   -5.4083   -1.5640 S.3       12 UNK        -0.2931 
      8 C8         30.1662   -5.8226   -2.1406 C.3       12 UNK         0.0378 
      9 C9         30.5218   -5.0295   -3.3880 C.ar      12 UNK        -0.0802 
     10 C10        31.2814   -3.8615   -3.2810 C.ar      12 UNK        -0.0944 
     11 C11        31.4814   -3.0311   -4.3859 C.ar      12 UNK        -0.0787 
     12 C12        30.9308   -3.4068   -5.6187 C.ar      12 UNK        -0.0862 
     13 C13        30.1931   -4.5896   -5.7481 C.ar      12 UNK        -0.0733 
     14 C14        30.0088   -5.4072   -4.6297 C.ar      12 UNK        -0.0832 
     15 C15        29.5813   -4.9617   -7.0953 C.3       12 UNK         0.0240 
     16 S16        27.8252   -5.4693   -7.0141 S.3       12 UNK        -0.2522 
     17 C17        27.0129   -4.1261   -6.0793 C.3       12 UNK        -0.0967 
     18 CA         26.7146   -2.8713   -6.9417 C.3       5 UNK         0.0660 
     19 N          25.4329   -2.2381   -6.6067 N.am      5 UNK        -0.4015 
     20 C          24.8429   -1.3036   -7.3666 C.2       4 UNK         0.4946 
     21 O          25.3183   -0.8759   -8.4169 O.2       4 UNK        -0.5353 
     22 CA         23.5004   -0.7308   -6.8856 C.3       4 UNK         0.0277 
     23 CB         22.3516   -1.6875   -7.2446 C.3       4 UNK        -0.1981 
     24 N          23.4219   -0.3868   -5.4629 N.am      4 UNK        -0.4209 
     25 C          24.2803    0.3824   -4.7782 C.2       3 UNK         0.4942 
     26 O          25.3553    0.7828   -5.2252 O.2       3 UNK        -0.5208 
     27 CA         23.8626    0.8039   -3.3623 C.3       3 UNK         0.0250 
     28 CB         22.5789    0.1262   -2.8298 C.3       3 UNK        -0.1990 
     29 N          24.9723    0.5661   -2.4462 N.am      3 UNK        -0.4232 
     30 C          25.2183    1.2760   -1.3372 C.2       2 UNK         0.4993 
     31 O          24.5448    2.2460   -0.9843 O.2       2 UNK        -0.5286 
     32 CA         26.3833    0.7937   -0.4582 C.3       2 UNK         0.0209 
     33 CB         26.2894    1.2893    0.9982 C.3       2 UNK        -0.1931 
     34 N          26.4339   -0.6680   -0.4762 N.am      2 UNK        -0.4546 
     35 C          27.5424   -1.3978   -0.6336 C.2       1 UNK         0.5154 
     36 O          28.6740   -0.9096   -0.6491 O.2       1 UNK        -0.5181 
     37 C          27.8637   -1.8519   -6.8706 C.2       5 UNK         0.5014 
     38 O          28.6137   -1.7102   -7.8384 O.2       5 UNK        -0.5248 
     39 N          27.9464   -1.1339   -5.7408 N.am      6 UNK        -0.4434 
     40 CA         28.9299   -0.0777   -5.5015 C.3       6 UNK         0.0363 
     41 CB         28.7922    0.4390   -4.0620 C.3       6 UNK        -0.1936 
     42 C          28.8403    1.0728   -6.5167 C.2       6 UNK         0.5081 
     43 O          29.8769    1.5646   -6.9648 O.2       6 UNK        -0.5248 
     44 N          27.6091    1.4518   -6.8848 N.am      7 UNK        -0.4718 
     45 CA         27.3130    2.4395   -7.9207 C.3       7 UNK         0.0273 
     46 CB         25.8214    2.8076   -7.8730 C.3       7 UNK        -0.1935 
     47 C          27.7183    1.9670   -9.3265 C.2       7 UNK         0.5018 
     48 O          28.3870    2.7185  -10.0360 O.2       7 UNK        -0.5186 
     49 N          27.3258    0.7396   -9.7023 N.am      8 UNK        -0.4240 
     50 CA         27.6122    0.1408  -11.0112 C.3       8 UNK         0.0235 
     51 CB         26.8183   -1.1645  -11.1802 C.3       8 UNK        -0.2000 
     52 C          29.1080   -0.1097  -11.2516 C.2       8 UNK         0.4941 
     53 O          29.5966    0.1653  -12.3483 O.2       8 UNK        -0.5273 
     54 N          29.8101   -0.6083  -10.2255 N.am      9 UNK        -0.4262 
     55 CA         31.2585   -0.8280  -10.2543 C.3       9 UNK         0.0264 
     56 CB         31.6313   -1.8112   -9.1387 C.3       9 UNK        -0.1955 
     57 C          32.0762    0.4680  -10.1073 C.2       9 UNK         0.5031 
     58 O          33.2654    0.4550  -10.4288 O.2       9 UNK        -0.5390 
     59 N          31.4378    1.5417   -9.6164 N.am      10 UNK        -0.4204 
     60 CA         32.0076    2.8498   -9.2817 C.3       10 UNK         0.0237 
     61 CB         32.4982    3.5844  -10.5478 C.3       10 UNK        -0.1985 
     62 C          33.0791    2.7368   -8.1816 C.2       10 UNK         0.4970 
     63 O          34.2075    3.1993   -8.3628 O.2       10 UNK        -0.4914 
     64 N          32.7002    2.1070   -7.0616 N.am      11 UNK        -0.4285 
     65 CA         33.5611    1.9037   -5.8839 C.3       11 UNK         0.1007 
     66 C          33.9190    3.2075   -5.1103 C.2       11 UNK         0.5703 
     67 N          33.1998    4.3096   -5.2910 N.am      11 UNK        -0.7361 
     68 O          34.8715    3.2178   -4.3341 O.2       11 UNK        -0.4986 
     69 C69        32.9740    0.8499   -4.9099 C.3       12 UNK        -0.0947 
     70 S70        32.7521   -0.8013   -5.6486 S.3       12 UNK        -0.2240 
     71 C71        32.2189   -1.7097   -4.1571 C.3       12 UNK         0.0194 
     72 H72        23.7050   -3.7790   -2.3609 H         1 UNK         0.0906 
     73 H73        23.8200   -2.8116   -3.8264 H         1 UNK         0.0906 
     74 H74        24.5573   -4.4145   -3.7698 H         1 UNK         0.0906 
     75 H75        25.5073   -3.9311   -0.9606 H         1 UNK         0.3140 
     76 H76        27.2778   -3.3203    0.1982 H         1 UNK         0.1085 
     77 H77        28.6871   -3.1922   -2.5000 H         1 UNK         0.0836 
     78 H78        29.4890   -3.3266   -0.9497 H         1 UNK         0.0836 
     79 H79        30.8814   -5.6242   -1.3407 H         1 UNK         0.0731 
     80 H80        30.2241   -6.8920   -2.3487 H         1 UNK         0.0731 
     81 H81        31.6653   -3.5627   -2.3149 H         1 UNK         0.1312 
     82 H82        31.0455   -2.7687   -6.4794 H         1 UNK         0.1406 
     83 H83        29.4145   -6.3072   -4.7115 H         1 UNK         0.1631 
     84 H84        30.1586   -5.7827   -7.5218 H         1 UNK         0.0717 
     85 H85        29.6680   -4.1359   -7.8012 H         1 UNK         0.0717 
     86 H86        26.0769   -4.5544   -5.7195 H         1 UNK         0.0934 
     87 H87        27.5782   -3.8916   -5.1747 H         1 UNK         0.0934 
     88 H88        26.6308   -3.1856   -7.9848 H         1 UNK         0.0739 
     89 H89        25.0114   -2.4876   -5.7259 H         1 UNK         0.3093 
     90 H90        23.3423    0.1990   -7.4359 H         1 UNK         0.0818 
     91 H91        21.3797   -1.2327   -7.0519 H         1 UNK         0.0819 
     92 H92        22.3773   -1.9491   -8.3037 H         1 UNK         0.0819 
     93 H93        22.4059   -2.6178   -6.6780 H         1 UNK         0.0819 
     94 H94        22.5699   -0.6559   -4.9928 H         1 UNK         0.3041 
     95 H95        23.6791    1.8789   -3.4211 H         1 UNK         0.0784 
     96 H96        21.7202    0.3312   -3.4703 H         1 UNK         0.0793 
     97 H97        22.6900   -0.9546   -2.7440 H         1 UNK         0.0793 
     98 H98        22.3215    0.5045   -1.8401 H         1 UNK         0.0793 
     99 H99        25.6058   -0.1810   -2.7129 H         1 UNK         0.3024 
    100 H100       27.2903    1.2071   -0.9060 H         1 UNK         0.1171 
    101 H101       26.2932    2.3791    1.0440 H         1 UNK         0.0786 
    102 H102       27.1358    0.9397    1.5896 H         1 UNK         0.0786 
    103 H103       25.3757    0.9428    1.4824 H         1 UNK         0.0786 
    104 H104       25.5432   -1.1465   -0.4814 H         1 UNK         0.2977 
    105 H105       27.2829   -1.3197   -4.9943 H         1 UNK         0.3127 
    106 H106       29.9146   -0.5288   -5.6115 H         1 UNK         0.0770 
    107 H107       27.8044    0.8628   -3.8778 H         1 UNK         0.0814 
    108 H108       29.5277    1.2165   -3.8528 H         1 UNK         0.0814 
    109 H109       28.9531   -0.3626   -3.3412 H         1 UNK         0.0814 
    110 H110       26.8130    1.0296   -6.4109 H         1 UNK         0.2983 
    111 H111       27.8911    3.3386   -7.6958 H         1 UNK         0.0947 
    112 H112       25.5795    3.5591   -8.6256 H         1 UNK         0.0806 
    113 H113       25.5473    3.2198   -6.9017 H         1 UNK         0.0806 
    114 H114       25.1848    1.9417   -8.0576 H         1 UNK         0.0806 
    115 H115       26.7503    0.1867   -9.0700 H         1 UNK         0.3000 
    116 H116       27.2718    0.8436  -11.7747 H         1 UNK         0.0850 
    117 H117       27.0236   -1.6272  -12.1464 H         1 UNK         0.0810 
    118 H118       25.7445   -0.9833  -11.1304 H         1 UNK         0.0810 
    119 H119       27.0707   -1.8919  -10.4073 H         1 UNK         0.0810 
    120 H120       29.3231   -0.8620   -9.3664 H         1 UNK         0.3040 
    121 H121       31.5246   -1.2801  -11.2121 H         1 UNK         0.0766 
    122 H122       32.7017   -2.0215   -9.1345 H         1 UNK         0.0812 
    123 H123       31.1099   -2.7613   -9.2519 H         1 UNK         0.0812 
    124 H124       31.3743   -1.3948   -8.1662 H         1 UNK         0.0812 
    125 H125       30.4657    1.4245   -9.3614 H         1 UNK         0.3205 
    126 H126       31.1910    3.4368   -8.8581 H         1 UNK         0.0754 
    127 H127       32.8236    4.5974  -10.3080 H         1 UNK         0.0769 
    128 H128       31.7029    3.6660  -11.2888 H         1 UNK         0.0769 
    129 H129       33.3414    3.0751  -11.0154 H         1 UNK         0.0769 
    130 H130       31.7393    1.7803   -6.9855 H         1 UNK         0.2981 
    131 H131       34.5099    1.5095   -6.2529 H         1 UNK         0.0541 
    132 H132       32.4133    4.3090   -5.9198 H         1 UNK         0.3459 
    133 H133       33.4448    5.1472   -4.7872 H         1 UNK         0.3459 
    134 H134       32.0090    1.1892   -4.5292 H         1 UNK         0.0612 
    135 H135       33.6241    0.7317   -4.0405 H         1 UNK         0.0612 
    136 H136       33.1010   -1.8889   -3.5405 H         1 UNK         0.0624 
    137 H137       31.5593   -1.0658   -3.5737 H         1 UNK         0.0624 
@<TRIPOS>BOND
     1    1    2 1    
     2    1   72 1    
     3    1   73 1    
     4    1   74 1    
     5    2    3 2    
     6    2    4 am   BACKBONE|DICT|INTERRES
     7    4    5 1    
     8    4   75 1    
     9    5    6 1    
    10    5   35 1    
    11    5   76 1    
    12    6    7 1    
    13    6   77 1    
    14    6   78 1    
    15    7    8 1    
    16    8    9 1    
    17    8   79 1    
    18    8   80 1    
    19    9   10 ar   
    20    9   14 ar   
    21   10   11 ar   
    22   10   81 1    
    23   11   12 ar   
    24   11   71 1    
    25   12   13 ar   
    26   12   82 1    
    27   13   14 ar   
    28   13   15 1    
    29   14   83 1    
    30   15   16 1    
    31   15   84 1    
    32   15   85 1    
    33   16   17 1    
    34   17   18 1    
    35   17   86 1    
    36   17   87 1    
    37   18   19 1    
    38   18   37 1    
    39   18   88 1    
    40   19   20 am   BACKBONE|DICT|INTERRES
    41   19   89 1    
    42   20   21 2    
    43   20   22 1    
    44   22   23 1    
    45   22   24 1    
    46   22   90 1    
    47   23   91 1    
    48   23   92 1    
    49   23   93 1    
    50   24   25 am   BACKBONE|DICT|INTERRES
    51   24   94 1    
    52   25   26 2    
    53   25   27 1    
    54   27   28 1    
    55   27   29 1    
    56   27   95 1    
    57   28   96 1    
    58   28   97 1    
    59   28   98 1    
    60   29   30 am   BACKBONE|DICT|INTERRES
    61   29   99 1    
    62   30   31 2    
    63   30   32 1    
    64   32   33 1    
    65   32   34 1    
    66   32  100 1    
    67   33  101 1    
    68   33  102 1    
    69   33  103 1    
    70   34   35 am   BACKBONE|DICT|INTERRES
    71   34  104 1    
    72   35   36 2    
    73   37   38 2    
    74   37   39 am   BACKBONE|DICT|INTERRES
    75   39   40 1    
    76   39  105 1    
    77   40   41 1    
    78   40   42 1    
    79   40  106 1    
    80   41  107 1    
    81   41  108 1    
    82   41  109 1    
    83   42   43 2    
    84   42   44 am   BACKBONE|DICT|INTERRES
    85   44   45 1    
    86   44  110 1    
    87   45   46 1    
    88   45   47 1    
    89   45  111 1    
    90   46  112 1    
    91   46  113 1    
    92   46  114 1    
    93   47   48 2    
    94   47   49 am   BACKBONE|DICT|INTERRES
    95   49   50 1    
    96   49  115 1    
    97   50   51 1    
    98   50   52 1    
    99   50  116 1    
   100   51  117 1    
   101   51  118 1    
   102   51  119 1    
   103   52   53 2    
   104   52   54 am   BACKBONE|DICT|INTERRES
   105   54   55 1    
   106   54  120 1    
   107   55   56 1    
   108   55   57 1    
   109   55  121 1    
   110   56  122 1    
   111   56  123 1    
   112   56  124 1    
   113   57   58 2    
   114   57   59 am   BACKBONE|DICT|INTERRES
   115   59   60 1    
   116   59  125 1    
   117   60   61 1    
   118   60   62 1    
   119   60  126 1    
   120   61  127 1    
   121   61  128 1    
   122   61  129 1    
   123   62   63 2    
   124   62   64 am   BACKBONE|DICT|INTERRES
   125   64   65 1    
   126   64  130 1    
   127   65   66 1    
   128   65   69 1    
   129   65  131 1    
   130   66   67 am   BACKBONE|DICT|INTERRES
   131   66   68 2    
   132   67  132 1    
   133   67  133 1    
   134   69   70 1    
   135   69  134 1    
   136   69  135 1    
   137   70   71 1    
   138   71  136 1    
   139   71  137 1    
@<TRIPOS>SUBSTRUCTURE
     1 UNK         1 GROUP             0       ****    0 ROOT    
