@<TRIPOS>MOLECULE
3R137
137   139    1
SMALL
USER_CHARGES


@<TRIPOS>ATOM
      1 CA         29.3238   -3.9035   -6.0157 C.3       0 UNK        -0.2020 
      2 C          28.5842   -4.9144   -5.1517 C.2       0 UNK         0.4855 
      3 O          27.9268   -5.8069   -5.6877 O.2       0 UNK        -0.5197 
      4 N          28.6955   -4.7939   -3.8213 N.am      1 UNK        -0.4892 
      5 CA         28.0691   -5.6975   -2.8440 C.3       1 UNK         0.0835 
      6 C6         28.6353   -5.5212   -1.4110 C.3       12 UNK        -0.0855 
      7 S7         30.4569   -5.6085   -1.3172 S.3       12 UNK        -0.2931 
      8 C8         30.8798   -3.9375   -0.7226 C.3       12 UNK         0.0378 
      9 C9         30.7664   -2.8985   -1.8288 C.ar      12 UNK        -0.0802 
     10 C10        31.8506   -2.6653   -2.6795 C.ar      12 UNK        -0.0944 
     11 C11        31.7608   -1.7181   -3.7038 C.ar      12 UNK        -0.0787 
     12 C12        30.5723   -1.0015   -3.8755 C.ar      12 UNK        -0.0862 
     13 C13        29.4782   -1.2352   -3.0375 C.ar      12 UNK        -0.0733 
     14 C14        29.5851   -2.1715   -2.0056 C.ar      12 UNK        -0.0832 
     15 C15        28.1667   -0.5044   -3.2651 C.3       12 UNK         0.0240 
     16 S16        27.1764   -1.3815   -4.5149 S.3       12 UNK        -0.2522 
     17 C17        27.1190   -0.1880   -5.8885 C.3       12 UNK        -0.0967 
     18 CA         25.6823    0.3398   -6.1341 C.3       5 UNK         0.0660 
     19 N          25.0582    0.9538   -4.9532 N.am      5 UNK        -0.4015 
     20 C          25.4720    1.9940   -4.2214 C.2       4 UNK         0.4946 
     21 O          26.4621    2.6709   -4.5021 O.2       4 UNK        -0.5353 
     22 CA         24.6433    2.3612   -2.9737 C.3       4 UNK         0.0277 
     23 CB         23.4722    3.2887   -3.3533 C.3       4 UNK        -0.1981 
     24 N          24.1844    1.2223   -2.1568 N.am      4 UNK        -0.4209 
     25 C          23.3319    0.2412   -2.4859 C.2       3 UNK         0.4942 
     26 O          22.7855    0.1394   -3.5874 O.2       3 UNK        -0.5208 
     27 CA         23.0494   -0.8236   -1.4153 C.3       3 UNK         0.0250 
     28 CB         21.5927   -0.7391   -0.9302 C.3       3 UNK        -0.1990 
     29 N          23.3001   -2.1494   -1.9803 N.am      3 UNK        -0.4232 
     30 C          24.5232   -2.6732   -2.1259 C.2       2 UNK         0.4993 
     31 O          25.5379   -2.1711   -1.6339 O.2       2 UNK        -0.5286 
     32 CA         24.6267   -3.9574   -2.9655 C.3       2 UNK         0.0209 
     33 CB         24.0722   -3.7522   -4.3888 C.3       2 UNK        -0.1931 
     34 N          26.0309   -4.3490   -3.0663 N.am      2 UNK        -0.4546 
     35 C          26.5316   -5.5611   -2.8052 C.2       1 UNK         0.5154 
     36 O          25.8412   -6.5420   -2.5225 O.2       1 UNK        -0.5181 
     37 C          25.6181    1.2158   -7.4021 C.2       5 UNK         0.5014 
     38 O          25.3466    0.6794   -8.4777 O.2       5 UNK        -0.5248 
     39 N          25.8525    2.5295   -7.2681 N.am      6 UNK        -0.4434 
     40 CA         25.8185    3.5553   -8.3169 C.3       6 UNK         0.0363 
     41 CB         24.3610    3.8308   -8.7513 C.3       6 UNK        -0.1936 
     42 C          26.7638    3.2013   -9.4801 C.2       6 UNK         0.5081 
     43 O          27.9793    3.2478   -9.2979 O.2       6 UNK        -0.5248 
     44 N          26.2089    2.8038  -10.6327 N.am      7 UNK        -0.4718 
     45 CA         26.9549    2.3403  -11.8074 C.3       7 UNK         0.0273 
     46 CB         25.9755    2.1240  -12.9722 C.3       7 UNK        -0.1935 
     47 C          27.7901    1.0675  -11.5627 C.2       7 UNK         0.5018 
     48 O          28.7787    0.8602  -12.2668 O.2       7 UNK        -0.5186 
     49 N          27.3998    0.2510  -10.5725 N.am      8 UNK        -0.4240 
     50 CA         28.1212   -0.9554  -10.1622 C.3       8 UNK         0.0235 
     51 CB         27.1166   -1.9949   -9.6333 C.3       8 UNK        -0.2000 
     52 C          29.2321   -0.6840   -9.1301 C.2       8 UNK         0.4941 
     53 O          29.9217   -1.6319   -8.7492 O.2       8 UNK        -0.5273 
     54 N          29.4142    0.5694   -8.6793 N.am      9 UNK        -0.4262 
     55 CA         30.4413    0.9652   -7.7069 C.3       9 UNK         0.0264 
     56 CB         30.0516    2.3049   -7.0532 C.3       9 UNK        -0.1955 
     57 C          31.8501    1.0139   -8.3332 C.2       9 UNK         0.5031 
     58 O          32.4858    2.0698   -8.3558 O.2       9 UNK        -0.5390 
     59 N          32.3218   -0.1394   -8.8246 N.am      10 UNK        -0.4204 
     60 CA         33.6108   -0.3306   -9.5015 C.3       10 UNK         0.0237 
     61 CB         33.7044   -1.7833   -9.9951 C.3       10 UNK        -0.1985 
     62 C          34.8420    0.0288   -8.6484 C.2       10 UNK         0.4970 
     63 O          35.8877    0.3583   -9.2092 O.2       10 UNK        -0.4914 
     64 N          34.6910   -0.0278   -7.3202 N.am      11 UNK        -0.4285 
     65 CA         35.6755    0.4323   -6.3342 C.3       11 UNK         0.1007 
     66 C          35.7833    1.9807   -6.1899 C.2       11 UNK         0.5703 
     67 N          34.9082    2.7783   -6.7934 N.am      11 UNK        -0.7361 
     68 O          36.6957    2.4694   -5.5274 O.2       11 UNK        -0.4986 
     69 C69        35.4809   -0.2848   -4.9720 C.3       12 UNK        -0.0947 
     70 S70        33.8593    0.0118   -4.1796 S.3       12 UNK        -0.2240 
     71 C71        32.9413   -1.4915   -4.6348 C.3       12 UNK         0.0194 
     72 H72        29.9598   -3.2503   -5.4218 H         1 UNK         0.0906 
     73 H73        29.9542   -4.4151   -6.7422 H         1 UNK         0.0906 
     74 H74        28.6147   -3.2816   -6.5617 H         1 UNK         0.0906 
     75 H75        29.2732   -4.0604   -3.4311 H         1 UNK         0.3140 
     76 H76        28.2873   -6.7189   -3.1643 H         1 UNK         0.1085 
     77 H77        28.2904   -4.5845   -0.9714 H         1 UNK         0.0836 
     78 H78        28.2426   -6.3061   -0.7613 H         1 UNK         0.0836 
     79 H79        31.9014   -3.9520   -0.3394 H         1 UNK         0.0731 
     80 H80        30.2464   -3.6712    0.1251 H         1 UNK         0.0731 
     81 H81        32.7650   -3.2274   -2.5456 H         1 UNK         0.1312 
     82 H82        30.4921   -0.2733   -4.6691 H         1 UNK         0.1406 
     83 H83        28.7388   -2.3423   -1.3535 H         1 UNK         0.1631 
     84 H84        28.3553    0.5301   -3.5537 H         1 UNK         0.0717 
     85 H85        27.5934   -0.4550   -2.3383 H         1 UNK         0.0717 
     86 H86        27.8119    0.6319   -5.7076 H         1 UNK         0.0934 
     87 H87        27.4925   -0.7043   -6.7721 H         1 UNK         0.0934 
     88 H88        25.0576   -0.5289   -6.3497 H         1 UNK         0.0739 
     89 H89        24.1961    0.5112   -4.6386 H         1 UNK         0.3093 
     90 H90        25.3102    2.9317   -2.3251 H         1 UNK         0.0818 
     91 H91        23.8325    4.1763   -3.8752 H         1 UNK         0.0819 
     92 H92        22.7554    2.7967   -4.0113 H         1 UNK         0.0819 
     93 H93        22.9347    3.6302   -2.4687 H         1 UNK         0.0819 
     94 H94        24.6021    1.1755   -1.2371 H         1 UNK         0.3041 
     95 H95        23.7062   -0.6656   -0.5568 H         1 UNK         0.0784 
     96 H96        21.3845    0.2382   -0.4926 H         1 UNK         0.0793 
     97 H97        20.8835   -0.8883   -1.7457 H         1 UNK         0.0793 
     98 H98        21.3858   -1.4873   -0.1648 H         1 UNK         0.0793 
     99 H99        22.5180   -2.5959   -2.4372 H         1 UNK         0.3024 
    100 H100       24.0498   -4.7328   -2.4564 H         1 UNK         0.1171 
    101 H101       24.5612   -2.9198   -4.8964 H         1 UNK         0.0786 
    102 H102       24.2171   -4.6435   -4.9997 H         1 UNK         0.0786 
    103 H103       23.0019   -3.5445   -4.3769 H         1 UNK         0.0786 
    104 H104       26.6737   -3.5859   -3.2378 H         1 UNK         0.2977 
    105 H105       26.1239    2.8461   -6.3391 H         1 UNK         0.3127 
    106 H106       26.2110    4.4710   -7.8722 H         1 UNK         0.0770 
    107 H107       23.8678    2.9415   -9.1451 H         1 UNK         0.0814 
    108 H108       24.3178    4.6047   -9.5189 H         1 UNK         0.0814 
    109 H109       23.7667    4.1856   -7.9092 H         1 UNK         0.0814 
    110 H110       25.2013    2.7575  -10.6849 H         1 UNK         0.2983 
    111 H111       27.6530    3.1321  -12.0882 H         1 UNK         0.0947 
    112 H112       26.5035    1.8055  -13.8723 H         1 UNK         0.0806 
    113 H113       25.4429    3.0423  -13.2202 H         1 UNK         0.0806 
    114 H114       25.2356    1.3568  -12.7401 H         1 UNK         0.0806 
    115 H115       26.5832    0.5010  -10.0200 H         1 UNK         0.3000 
    116 H116       28.6101   -1.3907  -11.0365 H         1 UNK         0.0850 
    117 H117       27.6188   -2.9256   -9.3651 H         1 UNK         0.0810 
    118 H118       26.3689   -2.2398  -10.3877 H         1 UNK         0.0810 
    119 H119       26.5907   -1.6446   -8.7463 H         1 UNK         0.0810 
    120 H120       28.8494    1.3209   -9.0609 H         1 UNK         0.3040 
    121 H121       30.4658    0.2115   -6.9185 H         1 UNK         0.0766 
    122 H122       30.1131    3.1314   -7.7619 H         1 UNK         0.0812 
    123 H123       30.7214    2.5411   -6.2254 H         1 UNK         0.0812 
    124 H124       29.0377    2.2898   -6.6568 H         1 UNK         0.0812 
    125 H125       31.6909   -0.9381   -8.7926 H         1 UNK         0.3205 
    126 H126       33.6204    0.3293  -10.3714 H         1 UNK         0.0754 
    127 H127       34.6385   -1.9555  -10.5320 H         1 UNK         0.0769 
    128 H128       32.8905   -2.0232  -10.6799 H         1 UNK         0.0769 
    129 H129       33.6671   -2.4934   -9.1678 H         1 UNK         0.0769 
    130 H130       33.7900   -0.2861   -6.9518 H         1 UNK         0.2981 
    131 H131       36.6548    0.1208   -6.7025 H         1 UNK         0.0541 
    132 H132       35.0054    3.7753   -6.6892 H         1 UNK         0.3459 
    133 H133       34.1416    2.4062   -7.3450 H         1 UNK         0.3459 
    134 H134       36.2568    0.0255   -4.2700 H         1 UNK         0.0612 
    135 H135       35.6297   -1.3576   -5.1011 H         1 UNK         0.0612 
    136 H136       32.5900   -1.4090   -5.6640 H         1 UNK         0.0624 
    137 H137       33.6068   -2.3555   -4.6040 H         1 UNK         0.0624 
@<TRIPOS>BOND
     1    1    2 1    
     2    1   72 1    
     3    1   73 1    
     4    1   74 1    
     5    2    3 2    
     6    2    4 am   BACKBONE|DICT|INTERRES
     7    4    5 1    
     8    4   75 1    
     9    5    6 1    
    10    5   35 1    
    11    5   76 1    
    12    6    7 1    
    13    6   77 1    
    14    6   78 1    
    15    7    8 1    
    16    8    9 1    
    17    8   79 1    
    18    8   80 1    
    19    9   10 ar   
    20    9   14 ar   
    21   10   11 ar   
    22   10   81 1    
    23   11   12 ar   
    24   11   71 1    
    25   12   13 ar   
    26   12   82 1    
    27   13   14 ar   
    28   13   15 1    
    29   14   83 1    
    30   15   16 1    
    31   15   84 1    
    32   15   85 1    
    33   16   17 1    
    34   17   18 1    
    35   17   86 1    
    36   17   87 1    
    37   18   19 1    
    38   18   37 1    
    39   18   88 1    
    40   19   20 am   BACKBONE|DICT|INTERRES
    41   19   89 1    
    42   20   21 2    
    43   20   22 1    
    44   22   23 1    
    45   22   24 1    
    46   22   90 1    
    47   23   91 1    
    48   23   92 1    
    49   23   93 1    
    50   24   25 am   BACKBONE|DICT|INTERRES
    51   24   94 1    
    52   25   26 2    
    53   25   27 1    
    54   27   28 1    
    55   27   29 1    
    56   27   95 1    
    57   28   96 1    
    58   28   97 1    
    59   28   98 1    
    60   29   30 am   BACKBONE|DICT|INTERRES
    61   29   99 1    
    62   30   31 2    
    63   30   32 1    
    64   32   33 1    
    65   32   34 1    
    66   32  100 1    
    67   33  101 1    
    68   33  102 1    
    69   33  103 1    
    70   34   35 am   BACKBONE|DICT|INTERRES
    71   34  104 1    
    72   35   36 2    
    73   37   38 2    
    74   37   39 am   BACKBONE|DICT|INTERRES
    75   39   40 1    
    76   39  105 1    
    77   40   41 1    
    78   40   42 1    
    79   40  106 1    
    80   41  107 1    
    81   41  108 1    
    82   41  109 1    
    83   42   43 2    
    84   42   44 am   BACKBONE|DICT|INTERRES
    85   44   45 1    
    86   44  110 1    
    87   45   46 1    
    88   45   47 1    
    89   45  111 1    
    90   46  112 1    
    91   46  113 1    
    92   46  114 1    
    93   47   48 2    
    94   47   49 am   BACKBONE|DICT|INTERRES
    95   49   50 1    
    96   49  115 1    
    97   50   51 1    
    98   50   52 1    
    99   50  116 1    
   100   51  117 1    
   101   51  118 1    
   102   51  119 1    
   103   52   53 2    
   104   52   54 am   BACKBONE|DICT|INTERRES
   105   54   55 1    
   106   54  120 1    
   107   55   56 1    
   108   55   57 1    
   109   55  121 1    
   110   56  122 1    
   111   56  123 1    
   112   56  124 1    
   113   57   58 2    
   114   57   59 am   BACKBONE|DICT|INTERRES
   115   59   60 1    
   116   59  125 1    
   117   60   61 1    
   118   60   62 1    
   119   60  126 1    
   120   61  127 1    
   121   61  128 1    
   122   61  129 1    
   123   62   63 2    
   124   62   64 am   BACKBONE|DICT|INTERRES
   125   64   65 1    
   126   64  130 1    
   127   65   66 1    
   128   65   69 1    
   129   65  131 1    
   130   66   67 am   BACKBONE|DICT|INTERRES
   131   66   68 2    
   132   67  132 1    
   133   67  133 1    
   134   69   70 1    
   135   69  134 1    
   136   69  135 1    
   137   70   71 1    
   138   71  136 1    
   139   71  137 1    
@<TRIPOS>SUBSTRUCTURE
     1 UNK         1 GROUP             0       ****    0 ROOT    
