@<TRIPOS>MOLECULE
3R137
137   139    1
SMALL
USER_CHARGES


@<TRIPOS>ATOM
      1 CA         24.3159   -5.3962   -3.9648 C.3       0 UNK        -0.2020 
      2 C          25.1385   -4.3618   -3.2134 C.2       0 UNK         0.4855 
      3 O          25.3931   -3.2828   -3.7477 O.2       0 UNK        -0.5197 
      4 N          25.5510   -4.6761   -1.9761 N.am      1 UNK        -0.4892 
      5 CA         26.3693   -3.8221   -1.0964 C.3       1 UNK         0.0835 
      6 C6         27.7462   -3.4788   -1.7326 C.3       12 UNK        -0.0855 
      7 S7         29.0940   -3.3109   -0.5113 S.3       12 UNK        -0.2931 
      8 C8         30.3850   -4.3863   -1.2175 C.3       12 UNK         0.0378 
      9 C9         30.7800   -3.9539   -2.6237 C.ar      12 UNK        -0.0802 
     10 C10        31.5006   -2.7760   -2.8248 C.ar      12 UNK        -0.0944 
     11 C11        31.8540   -2.3552   -4.1111 C.ar      12 UNK        -0.0787 
     12 C12        31.4750   -3.1403   -5.2126 C.ar      12 UNK        -0.0862 
     13 C13        30.7589   -4.3301   -5.0205 C.ar      12 UNK        -0.0733 
     14 C14        30.4204   -4.7301   -3.7255 C.ar      12 UNK        -0.0832 
     15 C15        30.3698   -5.2239   -6.1919 C.3       12 UNK         0.0240 
     16 S16        29.0410   -4.5649   -7.2548 S.3       12 UNK        -0.2522 
     17 C17        27.8071   -3.8109   -6.1268 C.3       12 UNK        -0.0967 
     18 CA         27.2986   -2.4673   -6.7078 C.3       5 UNK         0.0660 
     19 N          26.0326   -2.0139   -6.1242 N.am      5 UNK        -0.4015 
     20 C          25.2587   -1.0757   -6.6910 C.2       4 UNK         0.4946 
     21 O          25.5319   -0.5146   -7.7533 O.2       4 UNK        -0.5353 
     22 CA         23.9844   -0.6605   -5.9400 C.3       4 UNK         0.0277 
     23 CB         22.9463   -1.7950   -5.9323 C.3       4 UNK        -0.1981 
     24 N          24.2155   -0.1898   -4.5720 N.am      4 UNK        -0.4209 
     25 C          25.0567    0.7829   -4.1978 C.2       3 UNK         0.4942 
     26 O          25.8263    1.3514   -4.9717 O.2       3 UNK        -0.5208 
     27 CA         25.0583    1.2188   -2.7191 C.3       3 UNK         0.0250 
     28 CB         24.2465    2.5156   -2.5369 C.3       3 UNK        -0.1990 
     29 N          24.6501    0.1991   -1.7408 N.am      3 UNK        -0.4232 
     30 C          23.4636   -0.3993   -1.5657 C.2       2 UNK         0.4993 
     31 O          22.4840   -0.2026   -2.2864 O.2       2 UNK        -0.5286 
     32 CA         23.3904   -1.4378   -0.4277 C.3       2 UNK         0.0209 
     33 CB         21.9607   -1.9624   -0.1962 C.3       2 UNK        -0.1931 
     34 N          24.2735   -2.5761   -0.6938 N.am      2 UNK        -0.4546 
     35 C          25.6113   -2.5654   -0.5994 C.2       1 UNK         0.5154 
     36 O          26.2336   -1.5943   -0.1633 O.2       1 UNK        -0.5181 
     37 C          28.3768   -1.3687   -6.6650 C.2       5 UNK         0.5014 
     38 O          29.1251   -1.2379   -7.6317 O.2       5 UNK        -0.5248 
     39 N          28.4137   -0.5696   -5.5878 N.am      6 UNK        -0.4434 
     40 CA         29.3528    0.5454   -5.4397 C.3       6 UNK         0.0363 
     41 CB         29.2397    1.1577   -4.0355 C.3       6 UNK        -0.1936 
     42 C          29.1931    1.6102   -6.5374 C.2       6 UNK         0.5081 
     43 O          30.1958    2.0838   -7.0754 O.2       6 UNK        -0.5248 
     44 N          27.9365    1.9210   -6.8809 N.am      7 UNK        -0.4718 
     45 CA         27.5689    2.7713   -8.0093 C.3       7 UNK         0.0273 
     46 CB         26.0898    3.1726   -7.8887 C.3       7 UNK        -0.1935 
     47 C          27.8499    2.1006   -9.3642 C.2       7 UNK         0.5018 
     48 O          28.4768    2.7270  -10.2184 O.2       7 UNK        -0.5186 
     49 N          27.3910    0.8514   -9.5419 N.am      8 UNK        -0.4240 
     50 CA         27.4948    0.1014  -10.8001 C.3       8 UNK         0.0235 
     51 CB         26.6574   -1.1843  -10.7195 C.3       8 UNK        -0.2000 
     52 C          28.9376   -0.2229  -11.2203 C.2       8 UNK         0.4941 
     53 O          29.2681   -0.0701  -12.3970 O.2       8 UNK        -0.5273 
     54 N          29.7731   -0.6483  -10.2632 N.am      9 UNK        -0.4262 
     55 CA         31.1970   -0.9243  -10.4741 C.3       9 UNK         0.0264 
     56 CB         31.6916   -1.8984   -9.3913 C.3       9 UNK        -0.1955 
     57 C          32.0586    0.3510  -10.4811 C.2       9 UNK         0.5031 
     58 O          33.2198    0.2749  -10.8856 O.2       9 UNK        -0.5390 
     59 N          31.4868    1.4808  -10.0334 N.am      10 UNK        -0.4204 
     60 CA         32.1064    2.7989   -9.8705 C.3       10 UNK         0.0237 
     61 CB         32.4603    3.4151  -11.2408 C.3       10 UNK        -0.1985 
     62 C          33.2969    2.7468   -8.8968 C.2       10 UNK         0.4970 
     63 O          34.4180    3.1043   -9.2650 O.2       10 UNK        -0.4914 
     64 N          33.0255    2.2775   -7.6723 N.am      11 UNK        -0.4285 
     65 CA         34.0185    2.1374   -6.5949 C.3       11 UNK         0.1007 
     66 C          34.5772    3.4850   -6.0479 C.2       11 UNK         0.5703 
     67 N          33.9167    4.6173   -6.2631 N.am      11 UNK        -0.7361 
     68 O          35.6326    3.5008   -5.4187 O.2       11 UNK        -0.4986 
     69 C69        33.4844    1.2718   -5.4264 C.3       12 UNK        -0.0947 
     70 S70        33.0395   -0.4357   -5.8888 S.3       12 UNK        -0.2240 
     71 C71        32.6358   -1.0445   -4.2159 C.3       12 UNK         0.0194 
     72 H72        24.7878   -5.6280   -4.9191 H         1 UNK         0.0906 
     73 H73        24.2144   -6.3243   -3.4029 H         1 UNK         0.0906 
     74 H74        23.3176   -5.0079   -4.1642 H         1 UNK         0.0906 
     75 H75        25.3027   -5.5772   -1.5888 H         1 UNK         0.3140 
     76 H76        26.5489   -4.4233   -0.2036 H         1 UNK         0.1085 
     77 H77        28.0200   -4.2715   -2.4280 H         1 UNK         0.0836 
     78 H78        27.6959   -2.5719   -2.3386 H         1 UNK         0.0836 
     79 H79        31.2633   -4.3579   -0.5710 H         1 UNK         0.0731 
     80 H80        30.0334   -5.4193   -1.2103 H         1 UNK         0.0731 
     81 H81        31.7784   -2.1761   -1.9684 H         1 UNK         0.1312 
     82 H82        31.7294   -2.8387   -6.2186 H         1 UNK         0.1406 
     83 H83        29.8691   -5.6486   -3.5745 H         1 UNK         0.1631 
     84 H84        30.0601   -6.2073   -5.8347 H         1 UNK         0.0717 
     85 H85        31.2507   -5.3986   -6.8111 H         1 UNK         0.0717 
     86 H86        26.9789   -4.5145   -6.0326 H         1 UNK         0.0934 
     87 H87        28.2006   -3.6745   -5.1196 H         1 UNK         0.0934 
     88 H88        27.0842   -2.6470   -7.7630 H         1 UNK         0.0739 
     89 H89        25.7517   -2.4274   -5.2335 H         1 UNK         0.3093 
     90 H90        23.5534    0.1793   -6.4888 H         1 UNK         0.0818 
     91 H91        21.9935   -1.4555   -5.5257 H         1 UNK         0.0819 
     92 H92        22.7553   -2.1575   -6.9433 H         1 UNK         0.0819 
     93 H93        23.2773   -2.6458   -5.3371 H         1 UNK         0.0819 
     94 H94        23.5852   -0.5393   -3.8574 H         1 UNK         0.3041 
     95 H95        26.0968    1.4484   -2.4762 H         1 UNK         0.0784 
     96 H96        24.6181    3.3030   -3.1944 H         1 UNK         0.0793 
     97 H97        23.1911    2.3716   -2.7704 H         1 UNK         0.0793 
     98 H98        24.3170    2.8879   -1.5149 H         1 UNK         0.0793 
     99 H99        25.3966   -0.1323   -1.1342 H         1 UNK         0.3024 
    100 H100       23.7176   -0.9406    0.4887 H         1 UNK         0.1171 
    101 H101       21.5742   -2.4868   -1.0712 H         1 UNK         0.0786 
    102 H102       21.2749   -1.1426    0.0220 H         1 UNK         0.0786 
    103 H103       21.9221   -2.6484    0.6503 H         1 UNK         0.0786 
    104 H104       23.8433   -3.3979   -1.0927 H         1 UNK         0.2977 
    105 H105       27.7309   -0.7015   -4.8573 H         1 UNK         0.3127 
    106 H106       30.3508    0.1271   -5.5442 H         1 UNK         0.0770 
    107 H107       29.4139    0.4102   -3.2612 H         1 UNK         0.0814 
    108 H108       28.2599    1.6024   -3.8633 H         1 UNK         0.0814 
    109 H109       29.9819    1.9451   -3.8979 H         1 UNK         0.0814 
    110 H110       27.1727    1.5194   -6.3413 H         1 UNK         0.2983 
    111 H111       28.1724    3.6803   -7.9575 H         1 UNK         0.0947 
    112 H112       25.7891    3.8145   -8.7178 H         1 UNK         0.0806 
    113 H113       25.9047    3.7237   -6.9665 H         1 UNK         0.0806 
    114 H114       25.4320    2.3023   -7.8912 H         1 UNK         0.0806 
    115 H115       26.8624    0.4101   -8.7921 H         1 UNK         0.3000 
    116 H116       27.0642    0.7293  -11.5831 H         1 UNK         0.0850 
    117 H117       26.6845   -1.7281  -11.6647 H         1 UNK         0.0810 
    118 H118       25.6119   -0.9651  -10.5019 H         1 UNK         0.0810 
    119 H119       27.0278   -1.8567   -9.9464 H         1 UNK         0.0810 
    120 H120       29.4259   -0.7831   -9.3115 H         1 UNK         0.3040 
    121 H121       31.3192   -1.4092  -11.4450 H         1 UNK         0.0766 
    122 H122       32.7254   -2.1945   -9.5731 H         1 UNK         0.0812 
    123 H123       31.0905   -2.8076   -9.3659 H         1 UNK         0.0812 
    124 H124       31.6540   -1.4461   -8.4001 H         1 UNK         0.0812 
    125 H125       30.5261    1.4192   -9.7234 H         1 UNK         0.3205 
    126 H126       31.3521    3.4374   -9.4075 H         1 UNK         0.0754 
    127 H127       32.8384    4.4315  -11.1243 H         1 UNK         0.0769 
    128 H128       31.5840    3.4669  -11.8872 H         1 UNK         0.0769 
    129 H129       33.2273    2.8408  -11.7614 H         1 UNK         0.0769 
    130 H130       32.0640    2.0419   -7.4379 H         1 UNK         0.2981 
    131 H131       34.8747    1.6123   -7.0226 H         1 UNK         0.0541 
    132 H132       33.0471    4.6126   -6.7710 H         1 UNK         0.3459 
    133 H133       34.2908    5.4826   -5.9071 H         1 UNK         0.3459 
    134 H134       34.2315    1.2067   -4.6327 H         1 UNK         0.0612 
    135 H135       32.6068    1.7469   -4.9834 H         1 UNK         0.0612 
    136 H136       33.5700   -1.1506   -3.6624 H         1 UNK         0.0624 
    137 H137       32.0597   -0.2738   -3.7016 H         1 UNK         0.0624 
@<TRIPOS>BOND
     1    1    2 1    
     2    1   72 1    
     3    1   73 1    
     4    1   74 1    
     5    2    3 2    
     6    2    4 am   BACKBONE|DICT|INTERRES
     7    4    5 1    
     8    4   75 1    
     9    5    6 1    
    10    5   35 1    
    11    5   76 1    
    12    6    7 1    
    13    6   77 1    
    14    6   78 1    
    15    7    8 1    
    16    8    9 1    
    17    8   79 1    
    18    8   80 1    
    19    9   10 ar   
    20    9   14 ar   
    21   10   11 ar   
    22   10   81 1    
    23   11   12 ar   
    24   11   71 1    
    25   12   13 ar   
    26   12   82 1    
    27   13   14 ar   
    28   13   15 1    
    29   14   83 1    
    30   15   16 1    
    31   15   84 1    
    32   15   85 1    
    33   16   17 1    
    34   17   18 1    
    35   17   86 1    
    36   17   87 1    
    37   18   19 1    
    38   18   37 1    
    39   18   88 1    
    40   19   20 am   BACKBONE|DICT|INTERRES
    41   19   89 1    
    42   20   21 2    
    43   20   22 1    
    44   22   23 1    
    45   22   24 1    
    46   22   90 1    
    47   23   91 1    
    48   23   92 1    
    49   23   93 1    
    50   24   25 am   BACKBONE|DICT|INTERRES
    51   24   94 1    
    52   25   26 2    
    53   25   27 1    
    54   27   28 1    
    55   27   29 1    
    56   27   95 1    
    57   28   96 1    
    58   28   97 1    
    59   28   98 1    
    60   29   30 am   BACKBONE|DICT|INTERRES
    61   29   99 1    
    62   30   31 2    
    63   30   32 1    
    64   32   33 1    
    65   32   34 1    
    66   32  100 1    
    67   33  101 1    
    68   33  102 1    
    69   33  103 1    
    70   34   35 am   BACKBONE|DICT|INTERRES
    71   34  104 1    
    72   35   36 2    
    73   37   38 2    
    74   37   39 am   BACKBONE|DICT|INTERRES
    75   39   40 1    
    76   39  105 1    
    77   40   41 1    
    78   40   42 1    
    79   40  106 1    
    80   41  107 1    
    81   41  108 1    
    82   41  109 1    
    83   42   43 2    
    84   42   44 am   BACKBONE|DICT|INTERRES
    85   44   45 1    
    86   44  110 1    
    87   45   46 1    
    88   45   47 1    
    89   45  111 1    
    90   46  112 1    
    91   46  113 1    
    92   46  114 1    
    93   47   48 2    
    94   47   49 am   BACKBONE|DICT|INTERRES
    95   49   50 1    
    96   49  115 1    
    97   50   51 1    
    98   50   52 1    
    99   50  116 1    
   100   51  117 1    
   101   51  118 1    
   102   51  119 1    
   103   52   53 2    
   104   52   54 am   BACKBONE|DICT|INTERRES
   105   54   55 1    
   106   54  120 1    
   107   55   56 1    
   108   55   57 1    
   109   55  121 1    
   110   56  122 1    
   111   56  123 1    
   112   56  124 1    
   113   57   58 2    
   114   57   59 am   BACKBONE|DICT|INTERRES
   115   59   60 1    
   116   59  125 1    
   117   60   61 1    
   118   60   62 1    
   119   60  126 1    
   120   61  127 1    
   121   61  128 1    
   122   61  129 1    
   123   62   63 2    
   124   62   64 am   BACKBONE|DICT|INTERRES
   125   64   65 1    
   126   64  130 1    
   127   65   66 1    
   128   65   69 1    
   129   65  131 1    
   130   66   67 am   BACKBONE|DICT|INTERRES
   131   66   68 2    
   132   67  132 1    
   133   67  133 1    
   134   69   70 1    
   135   69  134 1    
   136   69  135 1    
   137   70   71 1    
   138   71  136 1    
   139   71  137 1    
@<TRIPOS>SUBSTRUCTURE
     1 UNK         1 GROUP             0       ****    0 ROOT    
