@<TRIPOS>MOLECULE
3R137
137   139    1
SMALL
USER_CHARGES


@<TRIPOS>ATOM
      1 CA         25.7275   -5.2320    1.8178 C.3       0 UNK        -0.2020 
      2 C          26.5645   -4.2622    0.9974 C.2       0 UNK         0.4855 
      3 O          27.1400   -3.3272    1.5537 O.2       0 UNK        -0.5197 
      4 N          26.6265   -4.4672   -0.3248 N.am      1 UNK        -0.4892 
      5 CA         27.4114   -3.6573   -1.2684 C.3       1 UNK         0.0835 
      6 C6         27.9306   -4.5050   -2.4569 C.3       12 UNK        -0.0855 
      7 S7         29.2615   -5.6617   -1.9875 S.3       12 UNK        -0.2931 
      8 C8         30.6198   -4.5528   -1.4581 C.3       12 UNK         0.0378 
      9 C9         30.7818   -3.3137   -2.3346 C.ar      12 UNK        -0.0802 
     10 C10        31.2113   -3.4358   -3.6570 C.ar      12 UNK        -0.0944 
     11 C11        31.3719   -2.3027   -4.4593 C.ar      12 UNK        -0.0787 
     12 C12        31.0839   -1.0364   -3.9361 C.ar      12 UNK        -0.0862 
     13 C13        30.6503   -0.8956   -2.6097 C.ar      12 UNK        -0.0733 
     14 C14        30.5153   -2.0412   -1.8184 C.ar      12 UNK        -0.0832 
     15 C15        30.3910    0.4650   -1.9565 C.3       12 UNK         0.0240 
     16 S16        30.0128    1.8485   -3.0880 S.3       12 UNK        -0.2522 
     17 C17        28.2149    1.6822   -3.3616 C.3       12 UNK        -0.0967 
     18 CA         27.8920    1.4450   -4.8622 C.3       5 UNK         0.0660 
     19 N          27.4856    0.0670   -5.1330 N.am      5 UNK        -0.4015 
     20 C          27.4556   -0.4728   -6.3589 C.2       4 UNK         0.4946 
     21 O          27.8238    0.1120   -7.3797 O.2       4 UNK        -0.5353 
     22 CA         26.8962   -1.8974   -6.4657 C.3       4 UNK         0.0277 
     23 CB         27.9874   -2.9243   -6.1266 C.3       4 UNK        -0.1981 
     24 N          25.7248   -2.0985   -5.6056 N.am      4 UNK        -0.4209 
     25 C          24.5337   -1.5180   -5.8175 C.2       3 UNK         0.4942 
     26 O          24.3035   -0.7509   -6.7504 O.2       3 UNK        -0.5208 
     27 CA         23.4153   -1.8157   -4.8057 C.3       3 UNK         0.0250 
     28 CB         22.7797   -3.1871   -5.0847 C.3       3 UNK        -0.1990 
     29 N          23.8605   -1.7517   -3.4127 N.am      3 UNK        -0.4232 
     30 C          24.3362   -0.6502   -2.8147 C.2       2 UNK         0.4993 
     31 O          24.4704    0.4360   -3.3737 O.2       2 UNK        -0.5286 
     32 CA         24.7978   -0.8010   -1.3588 C.3       2 UNK         0.0209 
     33 CB         23.6020   -0.7284   -0.3957 C.3       2 UNK        -0.1931 
     34 N          25.5591   -2.0285   -1.1101 N.am      2 UNK        -0.4546 
     35 C          26.6828   -2.3825   -1.7509 C.2       1 UNK         0.5154 
     36 O          27.1484   -1.7371   -2.6942 O.2       1 UNK        -0.5181 
     37 C          26.8775    2.4636   -5.4280 C.2       5 UNK         0.5014 
     38 O          27.3021    3.4414   -6.0446 O.2       5 UNK        -0.5248 
     39 N          25.5686    2.2120   -5.2613 N.am      6 UNK        -0.4434 
     40 CA         24.4873    3.0380   -5.8155 C.3       6 UNK         0.0363 
     41 CB         23.1328    2.5883   -5.2456 C.3       6 UNK        -0.1936 
     42 C          24.4466    3.0347   -7.3530 C.2       6 UNK         0.5081 
     43 O          24.2045    4.0825   -7.9523 O.2       6 UNK        -0.5248 
     44 N          24.7126    1.8726   -7.9660 N.am      7 UNK        -0.4718 
     45 CA         24.8516    1.7091   -9.4170 C.3       7 UNK         0.0273 
     46 CB         24.7698    0.2133   -9.7644 C.3       7 UNK        -0.1935 
     47 C          26.1508    2.3113   -9.9847 C.2       7 UNK         0.5018 
     48 O          26.2510    2.4559  -11.2038 O.2       7 UNK        -0.5186 
     49 N          27.1129    2.6304   -9.1046 N.am      8 UNK        -0.4240 
     50 CA         28.4651    3.1179   -9.3865 C.3       8 UNK         0.0235 
     51 CB         28.4283    4.5269  -10.0161 C.3       8 UNK        -0.2000 
     52 C          29.2724    2.0993  -10.2103 C.2       8 UNK         0.4941 
     53 O          29.8168    2.4436  -11.2611 O.2       8 UNK        -0.5273 
     54 N          29.3191    0.8525   -9.7151 N.am      9 UNK        -0.4262 
     55 CA         29.9863   -0.2888  -10.3527 C.3       9 UNK         0.0264 
     56 CB         29.6934   -1.5621   -9.5418 C.3       9 UNK        -0.1955 
     57 C          31.5049   -0.1195  -10.5498 C.2       9 UNK         0.5031 
     58 O          32.0510   -0.7214  -11.4756 O.2       9 UNK        -0.5390 
     59 N          32.1463    0.6871   -9.6867 N.am      10 UNK        -0.4204 
     60 CA         33.5728    1.0452   -9.6931 C.3       10 UNK         0.0237 
     61 CB         33.8923    1.9614  -10.8944 C.3       10 UNK        -0.1985 
     62 C          34.4984   -0.1852   -9.6102 C.2       10 UNK         0.4970 
     63 O          35.4557   -0.2989  -10.3791 O.2       10 UNK        -0.4914 
     64 N          34.1643   -1.0973   -8.6897 N.am      11 UNK        -0.4285 
     65 CA         34.8808   -2.3527   -8.4374 C.3       11 UNK         0.1007 
     66 C          36.3353   -2.1629   -7.9145 C.2       11 UNK         0.5703 
     67 N          37.1872   -3.1655   -8.0846 N.am      11 UNK        -0.7361 
     68 O          36.6921   -1.1358   -7.3383 O.2       11 UNK        -0.4986 
     69 C69        34.0395   -3.2993   -7.5400 C.3       12 UNK        -0.0947 
     70 S70        33.6995   -2.6444   -5.8679 S.3       12 UNK        -0.2240 
     71 C71        31.8895   -2.4623   -5.8795 C.3       12 UNK         0.0194 
     72 H72        25.2454   -5.9854    1.1940 H         1 UNK         0.0906 
     73 H73        26.3561   -5.7462    2.5452 H         1 UNK         0.0906 
     74 H74        24.9508   -4.6925    2.3596 H         1 UNK         0.0906 
     75 H75        26.1338   -5.2524   -0.7281 H         1 UNK         0.3140 
     76 H76        28.2754   -3.2730   -0.7286 H         1 UNK         0.1085 
     77 H77        27.1149   -5.0724   -2.9080 H         1 UNK         0.0836 
     78 H78        28.3263   -3.8832   -3.2578 H         1 UNK         0.0836 
     79 H79        31.5533   -5.1173   -1.4642 H         1 UNK         0.0731 
     80 H80        30.4521   -4.2679   -0.4183 H         1 UNK         0.0731 
     81 H81        31.4330   -4.4154   -4.0585 H         1 UNK         0.1312 
     82 H82        31.2254   -0.1639   -4.5578 H         1 UNK         0.1406 
     83 H83        30.2084   -1.9363   -0.7867 H         1 UNK         0.1631 
     84 H84        31.2855    0.7344   -1.3935 H         1 UNK         0.0717 
     85 H85        29.5867    0.3827   -1.2234 H         1 UNK         0.0717 
     86 H86        27.8107    0.8841   -2.7363 H         1 UNK         0.0934 
     87 H87        27.7540    2.5981   -2.9839 H         1 UNK         0.0934 
     88 H88        28.8035    1.6085   -5.4425 H         1 UNK         0.0739 
     89 H89        27.2094   -0.4998   -4.3371 H         1 UNK         0.3093 
     90 H90        26.5842   -2.0590   -7.4999 H         1 UNK         0.0818 
     91 H91        28.4395   -2.7223   -5.1560 H         1 UNK         0.0819 
     92 H92        27.5977   -3.9421   -6.1181 H         1 UNK         0.0819 
     93 H93        28.7902   -2.8915   -6.8635 H         1 UNK         0.0819 
     94 H94        25.8474   -2.6732   -4.7850 H         1 UNK         0.3041 
     95 H95        22.6450   -1.0528   -4.9383 H         1 UNK         0.0784 
     96 H96        22.4277   -3.2503   -6.1155 H         1 UNK         0.0793 
     97 H97        23.4872   -4.0029   -4.9314 H         1 UNK         0.0793 
     98 H98        21.9185   -3.3636   -4.4399 H         1 UNK         0.0793 
     99 H99        23.8017   -2.6013   -2.8707 H         1 UNK         0.3024 
    100 H100       25.4604    0.0409   -1.1452 H         1 UNK         0.1171 
    101 H101       23.0278    0.1855   -0.5556 H         1 UNK         0.0786 
    102 H102       23.9301   -0.7239    0.6440 H         1 UNK         0.0786 
    103 H103       22.9206   -1.5695   -0.5294 H         1 UNK         0.0786 
    104 H104       25.2561   -2.6106   -0.3428 H         1 UNK         0.2977 
    105 H105       25.2778    1.4195   -4.6897 H         1 UNK         0.3127 
    106 H106       24.6625    4.0673   -5.4953 H         1 UNK         0.0770 
    107 H107       22.9188    1.5473   -5.4913 H         1 UNK         0.0814 
    108 H108       22.3185    3.1936   -5.6461 H         1 UNK         0.0814 
    109 H109       23.1066    2.6890   -4.1605 H         1 UNK         0.0814 
    110 H110       24.8180    1.0313   -7.4043 H         1 UNK         0.2983 
    111 H111       24.0177    2.2211   -9.9019 H         1 UNK         0.0947 
    112 H112       24.8422    0.0543  -10.8411 H         1 UNK         0.0806 
    113 H113       23.8240   -0.2188   -9.4372 H         1 UNK         0.0806 
    114 H114       25.5770   -0.3512   -9.2955 H         1 UNK         0.0806 
    115 H115       26.9166    2.4539   -8.1274 H         1 UNK         0.3000 
    116 H116       28.9671    3.2022   -8.4213 H         1 UNK         0.0850 
    117 H117       29.4360    4.9285  -10.1290 H         1 UNK         0.0810 
    118 H118       27.8692    5.2236   -9.3914 H         1 UNK         0.0810 
    119 H119       27.9695    4.5204  -11.0052 H         1 UNK         0.0810 
    120 H120       28.8001    0.6503   -8.8604 H         1 UNK         0.3040 
    121 H121       29.5449   -0.4072  -11.3444 H         1 UNK         0.0766 
    122 H122       28.6223   -1.7582   -9.4855 H         1 UNK         0.0812 
    123 H123       30.0731   -1.4847   -8.5228 H         1 UNK         0.0812 
    124 H124       30.1587   -2.4361   -9.9998 H         1 UNK         0.0812 
    125 H125       31.5884    1.1176   -8.9629 H         1 UNK         0.3205 
    126 H126       33.7527    1.6219   -8.7843 H         1 UNK         0.0754 
    127 H127       34.9204    2.3232  -10.8494 H         1 UNK         0.0769 
    128 H128       33.2415    2.8358  -10.9092 H         1 UNK         0.0769 
    129 H129       33.7714    1.4395  -11.8445 H         1 UNK         0.0769 
    130 H130       33.3851   -0.9081   -8.0794 H         1 UNK         0.2981 
    131 H131       34.9729   -2.8399   -9.4105 H         1 UNK         0.0541 
    132 H132       36.9072   -4.0169   -8.5468 H         1 UNK         0.3459 
    133 H133       38.1312   -3.0680   -7.7445 H         1 UNK         0.3459 
    134 H134       33.0962   -3.5264   -8.0388 H         1 UNK         0.0612 
    135 H135       34.5438   -4.2606   -7.4275 H         1 UNK         0.0612 
    136 H136       31.4306   -3.3408   -6.3360 H         1 UNK         0.0624 
    137 H137       31.6103   -1.6053   -6.4938 H         1 UNK         0.0624 
@<TRIPOS>BOND
     1    1    2 1    
     2    1   72 1    
     3    1   73 1    
     4    1   74 1    
     5    2    3 2    
     6    2    4 am   BACKBONE|DICT|INTERRES
     7    4    5 1    
     8    4   75 1    
     9    5    6 1    
    10    5   35 1    
    11    5   76 1    
    12    6    7 1    
    13    6   77 1    
    14    6   78 1    
    15    7    8 1    
    16    8    9 1    
    17    8   79 1    
    18    8   80 1    
    19    9   10 ar   
    20    9   14 ar   
    21   10   11 ar   
    22   10   81 1    
    23   11   12 ar   
    24   11   71 1    
    25   12   13 ar   
    26   12   82 1    
    27   13   14 ar   
    28   13   15 1    
    29   14   83 1    
    30   15   16 1    
    31   15   84 1    
    32   15   85 1    
    33   16   17 1    
    34   17   18 1    
    35   17   86 1    
    36   17   87 1    
    37   18   19 1    
    38   18   37 1    
    39   18   88 1    
    40   19   20 am   BACKBONE|DICT|INTERRES
    41   19   89 1    
    42   20   21 2    
    43   20   22 1    
    44   22   23 1    
    45   22   24 1    
    46   22   90 1    
    47   23   91 1    
    48   23   92 1    
    49   23   93 1    
    50   24   25 am   BACKBONE|DICT|INTERRES
    51   24   94 1    
    52   25   26 2    
    53   25   27 1    
    54   27   28 1    
    55   27   29 1    
    56   27   95 1    
    57   28   96 1    
    58   28   97 1    
    59   28   98 1    
    60   29   30 am   BACKBONE|DICT|INTERRES
    61   29   99 1    
    62   30   31 2    
    63   30   32 1    
    64   32   33 1    
    65   32   34 1    
    66   32  100 1    
    67   33  101 1    
    68   33  102 1    
    69   33  103 1    
    70   34   35 am   BACKBONE|DICT|INTERRES
    71   34  104 1    
    72   35   36 2    
    73   37   38 2    
    74   37   39 am   BACKBONE|DICT|INTERRES
    75   39   40 1    
    76   39  105 1    
    77   40   41 1    
    78   40   42 1    
    79   40  106 1    
    80   41  107 1    
    81   41  108 1    
    82   41  109 1    
    83   42   43 2    
    84   42   44 am   BACKBONE|DICT|INTERRES
    85   44   45 1    
    86   44  110 1    
    87   45   46 1    
    88   45   47 1    
    89   45  111 1    
    90   46  112 1    
    91   46  113 1    
    92   46  114 1    
    93   47   48 2    
    94   47   49 am   BACKBONE|DICT|INTERRES
    95   49   50 1    
    96   49  115 1    
    97   50   51 1    
    98   50   52 1    
    99   50  116 1    
   100   51  117 1    
   101   51  118 1    
   102   51  119 1    
   103   52   53 2    
   104   52   54 am   BACKBONE|DICT|INTERRES
   105   54   55 1    
   106   54  120 1    
   107   55   56 1    
   108   55   57 1    
   109   55  121 1    
   110   56  122 1    
   111   56  123 1    
   112   56  124 1    
   113   57   58 2    
   114   57   59 am   BACKBONE|DICT|INTERRES
   115   59   60 1    
   116   59  125 1    
   117   60   61 1    
   118   60   62 1    
   119   60  126 1    
   120   61  127 1    
   121   61  128 1    
   122   61  129 1    
   123   62   63 2    
   124   62   64 am   BACKBONE|DICT|INTERRES
   125   64   65 1    
   126   64  130 1    
   127   65   66 1    
   128   65   69 1    
   129   65  131 1    
   130   66   67 am   BACKBONE|DICT|INTERRES
   131   66   68 2    
   132   67  132 1    
   133   67  133 1    
   134   69   70 1    
   135   69  134 1    
   136   69  135 1    
   137   70   71 1    
   138   71  136 1    
   139   71  137 1    
@<TRIPOS>SUBSTRUCTURE
     1 UNK         1 GROUP             0       ****    0 ROOT    
