@<TRIPOS>MOLECULE
3R137
137   139    1
SMALL
USER_CHARGES


@<TRIPOS>ATOM
      1 CA         29.3198   -2.5168    0.5002 C.3       0 UNK        -0.2020 
      2 C          29.6799   -2.6169   -0.9800 C.2       0 UNK         0.4855 
      3 O          30.3353   -3.5785   -1.3727 O.2       0 UNK        -0.5197 
      4 N          29.2847   -1.6622   -1.8355 N.am      1 UNK        -0.4892 
      5 CA         28.4651   -0.4771   -1.5334 C.3       1 UNK         0.0835 
      6 C6         28.5550    0.5845   -2.6591 C.3       12 UNK        -0.0855 
      7 S7         30.2227    1.3145   -2.7793 S.3       12 UNK        -0.2931 
      8 C8         30.6665    0.9855   -4.5153 C.3       12 UNK         0.0378 
      9 C9         30.8671   -0.4970   -4.7960 C.ar      12 UNK        -0.0802 
     10 C10        31.8342   -1.2222   -4.0948 C.ar      12 UNK        -0.0944 
     11 C11        32.0376   -2.5793   -4.3597 C.ar      12 UNK        -0.0787 
     12 C12        31.2520   -3.2168   -5.3231 C.ar      12 UNK        -0.0862 
     13 C13        30.2965   -2.4982   -6.0463 C.ar      12 UNK        -0.0733 
     14 C14        30.1101   -1.1374   -5.7809 C.ar      12 UNK        -0.0832 
     15 C15        29.4996   -3.1895   -7.1421 C.3       12 UNK         0.0240 
     16 S16        28.2097   -4.2916   -6.4813 S.3       12 UNK        -0.2522 
     17 C17        27.0701   -3.1260   -5.6659 C.3       12 UNK        -0.0967 
     18 CA         26.1027   -2.4289   -6.6660 C.3       5 UNK         0.0660 
     19 N          24.7050   -2.5656   -6.2507 N.am      5 UNK        -0.4015 
     20 C          23.6559   -2.6753   -7.0759 C.2       4 UNK         0.4946 
     21 O          23.7487   -2.6794   -8.3040 O.2       4 UNK        -0.5353 
     22 CA         22.2637   -2.8259   -6.4319 C.3       4 UNK         0.0277 
     23 CB         21.8495   -4.3064   -6.3996 C.3       4 UNK        -0.1981 
     24 N          22.1874   -2.2780   -5.0742 N.am      4 UNK        -0.4209 
     25 C          22.1055   -0.9705   -4.7918 C.2       3 UNK         0.4942 
     26 O          22.0239   -0.0892   -5.6475 O.2       3 UNK        -0.5208 
     27 CA         22.1560   -0.5723   -3.3038 C.3       3 UNK         0.0250 
     28 CB         20.7390   -0.5475   -2.7082 C.3       3 UNK        -0.1990 
     29 N          23.0280   -1.4012   -2.4560 N.am      3 UNK        -0.4232 
     30 C          24.3268   -1.6373   -2.6860 C.2       2 UNK         0.4993 
     31 O          24.9055   -1.3075   -3.7223 O.2       2 UNK        -0.5286 
     32 CA         25.1142   -2.4008   -1.6103 C.3       2 UNK         0.0209 
     33 CB         25.0063   -3.9169   -1.8383 C.3       2 UNK        -0.1931 
     34 N          26.5270   -2.0099   -1.6440 N.am      2 UNK        -0.4546 
     35 C          26.9851   -0.8135   -1.2471 C.2       1 UNK         0.5154 
     36 O          26.2849    0.0194   -0.6695 O.2       1 UNK        -0.5181 
     37 C          26.4746   -0.9459   -6.8515 C.2       5 UNK         0.5014 
     38 O          27.2298   -0.6254   -7.7672 O.2       5 UNK        -0.5248 
     39 N          25.9348   -0.0715   -5.9884 N.am      6 UNK        -0.4434 
     40 CA         26.2089    1.3668   -5.8587 C.3       6 UNK         0.0363 
     41 CB         25.3789    1.9113   -4.6829 C.3       6 UNK        -0.1936 
     42 C          26.0070    2.2384   -7.1169 C.2       6 UNK         0.5081 
     43 O          26.3453    3.4222   -7.0820 O.2       6 UNK        -0.5248 
     44 N          25.4874    1.6610   -8.2082 N.am      7 UNK        -0.4718 
     45 CA         25.5348    2.2385   -9.5531 C.3       7 UNK         0.0273 
     46 CB         24.6454    1.4075  -10.4913 C.3       7 UNK        -0.1935 
     47 C          26.9732    2.3289  -10.1051 C.2       7 UNK         0.5018 
     48 O          27.2585    3.2396  -10.8842 O.2       7 UNK        -0.5186 
     49 N          27.8519    1.4069   -9.6840 N.am      8 UNK        -0.4240 
     50 CA         29.2929    1.4617   -9.9205 C.3       8 UNK         0.0235 
     51 CB         29.8576    0.0323   -9.9501 C.3       8 UNK        -0.2000 
     52 C          29.9583    2.2744   -8.8006 C.2       8 UNK         0.4941 
     53 O          29.5656    2.1497   -7.6393 O.2       8 UNK        -0.5273 
     54 N          30.9693    3.0735   -9.1618 N.am      9 UNK        -0.4262 
     55 CA         31.6944    3.9532   -8.2380 C.3       9 UNK         0.0264 
     56 CB         32.3974    5.0549   -9.0492 C.3       9 UNK        -0.1955 
     57 C          32.7094    3.2247   -7.3365 C.2       9 UNK         0.5031 
     58 O          33.1331    3.7988   -6.3321 O.2       9 UNK        -0.5390 
     59 N          33.1012    2.0017   -7.7085 N.am      10 UNK        -0.4204 
     60 CA         34.0840    1.1695   -7.0212 C.3       10 UNK         0.0237 
     61 CB         35.5089    1.6238   -7.3977 C.3       10 UNK        -0.1985 
     62 C          33.8434   -0.2962   -7.4008 C.2       10 UNK         0.4970 
     63 O          33.0361   -0.5720   -8.2927 O.2       10 UNK        -0.4914 
     64 N          34.5596   -1.2010   -6.7234 N.am      11 UNK        -0.4285 
     65 CA         34.4390   -2.6600   -6.8807 C.3       11 UNK         0.1007 
     66 C          34.9372   -3.2324   -8.2405 C.2       11 UNK         0.5703 
     67 N          35.6631   -2.4773   -9.0567 N.am      11 UNK        -0.7361 
     68 O          34.6577   -4.3856   -8.5597 O.2       11 UNK        -0.4986 
     69 C69        35.0693   -3.4448   -5.6928 C.3       12 UNK        -0.0947 
     70 S70        34.7823   -2.7365   -4.0317 S.3       12 UNK        -0.2240 
     71 C71        33.1181   -3.3468   -3.6137 C.3       12 UNK         0.0194 
     72 H72        29.8475   -3.2818    1.0696 H         1 UNK         0.0906 
     73 H73        29.6044   -1.5509    0.9153 H         1 UNK         0.0906 
     74 H74        28.2526   -2.6705    0.6552 H         1 UNK         0.0906 
     75 H75        29.6003   -1.7292   -2.7940 H         1 UNK         0.3140 
     76 H76        28.8527   -0.0158   -0.6233 H         1 UNK         0.1085 
     77 H77        28.2556    0.1558   -3.6174 H         1 UNK         0.0836 
     78 H78        27.8655    1.4104   -2.4716 H         1 UNK         0.0836 
     79 H79        31.5884    1.5178   -4.7530 H         1 UNK         0.0731 
     80 H80        29.8943    1.4073   -5.1593 H         1 UNK         0.0731 
     81 H81        32.4376   -0.7270   -3.3462 H         1 UNK         0.1312 
     82 H82        31.4024   -4.2669   -5.5335 H         1 UNK         0.1406 
     83 H83        29.3876   -0.5698   -6.3510 H         1 UNK         0.1631 
     84 H84        30.1804   -3.7812   -7.7558 H         1 UNK         0.0717 
     85 H85        29.0487   -2.4640   -7.8179 H         1 UNK         0.0717 
     86 H86        26.5074   -3.7197   -4.9444 H         1 UNK         0.0934 
     87 H87        27.6355   -2.4212   -5.0527 H         1 UNK         0.0934 
     88 H88        26.2060   -2.9004   -7.6460 H         1 UNK         0.0739 
     89 H89        24.5332   -2.4691   -5.2564 H         1 UNK         0.3093 
     90 H90        21.5523   -2.2885   -7.0632 H         1 UNK         0.0818 
     91 H91        21.8665   -4.7379   -7.4015 H         1 UNK         0.0819 
     92 H92        22.5194   -4.9017   -5.7778 H         1 UNK         0.0819 
     93 H93        20.8365   -4.4271   -6.0150 H         1 UNK         0.0819 
     94 H94        22.2344   -2.9339   -4.3077 H         1 UNK         0.3041 
     95 H95        22.5551    0.4436   -3.2646 H         1 UNK         0.0784 
     96 H96        20.0745    0.0787   -3.3055 H         1 UNK         0.0793 
     97 H97        20.2991   -1.5449   -2.6696 H         1 UNK         0.0793 
     98 H98        20.7394   -0.1403   -1.6969 H         1 UNK         0.0793 
     99 H99        22.6225   -1.7337   -1.5924 H         1 UNK         0.3024 
    100 H100       24.7047   -2.1539   -0.6280 H         1 UNK         0.1171 
    101 H101       23.9684   -4.2489   -1.7877 H         1 UNK         0.0786 
    102 H102       25.3950   -4.2109   -2.8137 H         1 UNK         0.0786 
    103 H103       25.5578   -4.4710   -1.0784 H         1 UNK         0.0786 
    104 H104       27.1628   -2.6239   -2.1315 H         1 UNK         0.2977 
    105 H105       25.3745   -0.4658   -5.2341 H         1 UNK         0.3127 
    106 H106       27.2653    1.4598   -5.5996 H         1 UNK         0.0770 
    107 H107       24.3092    1.8103   -4.8705 H         1 UNK         0.0814 
    108 H108       25.5831    2.9688   -4.5098 H         1 UNK         0.0814 
    109 H109       25.6069    1.3857   -3.7554 H         1 UNK         0.0814 
    110 H110       25.2465    0.6825   -8.1435 H         1 UNK         0.2983 
    111 H111       25.1345    3.2536   -9.5038 H         1 UNK         0.0947 
    112 H112       24.9905    0.3753  -10.5659 H         1 UNK         0.0806 
    113 H113       24.6450    1.8254  -11.4991 H         1 UNK         0.0806 
    114 H114       23.6110    1.3921  -10.1474 H         1 UNK         0.0806 
    115 H115       27.5481    0.7229   -8.9928 H         1 UNK         0.3000 
    116 H116       29.4876    1.9352  -10.8853 H         1 UNK         0.0850 
    117 H117       30.9216    0.0360  -10.1901 H         1 UNK         0.0810 
    118 H118       29.3562   -0.5792  -10.7002 H         1 UNK         0.0810 
    119 H119       29.7468   -0.4632   -8.9850 H         1 UNK         0.0810 
    120 H120       31.2413    3.1140  -10.1342 H         1 UNK         0.3040 
    121 H121       30.9663    4.4318   -7.5791 H         1 UNK         0.0766 
    122 H122       31.6834    5.6365   -9.6327 H         1 UNK         0.0812 
    123 H123       33.1378    4.6420   -9.7356 H         1 UNK         0.0812 
    124 H124       32.9179    5.7526   -8.3913 H         1 UNK         0.0812 
    125 H125       32.6571    1.5515   -8.4992 H         1 UNK         0.3205 
    126 H126       33.9392    1.2630   -5.9426 H         1 UNK         0.0754 
    127 H127       36.2665    1.0308   -6.8845 H         1 UNK         0.0769 
    128 H128       35.6800    2.6644   -7.1211 H         1 UNK         0.0769 
    129 H129       35.6893    1.5312   -8.4695 H         1 UNK         0.0769 
    130 H130       35.1996   -0.8928   -6.0069 H         1 UNK         0.2981 
    131 H131       33.3712   -2.8717   -6.8758 H         1 UNK         0.0541 
    132 H132       35.9767   -2.8593   -9.9349 H         1 UNK         0.3459 
    133 H133       35.8926   -1.5297   -8.8059 H         1 UNK         0.3459 
    134 H134       34.7184   -4.4783   -5.6951 H         1 UNK         0.0612 
    135 H135       36.1523   -3.4983   -5.8192 H         1 UNK         0.0612 
    136 H136       33.0575   -4.4173   -3.8155 H         1 UNK         0.0624 
    137 H137       32.9589   -3.2260   -2.5414 H         1 UNK         0.0624 
@<TRIPOS>BOND
     1    1    2 1    
     2    1   72 1    
     3    1   73 1    
     4    1   74 1    
     5    2    3 2    
     6    2    4 am   BACKBONE|DICT|INTERRES
     7    4    5 1    
     8    4   75 1    
     9    5    6 1    
    10    5   35 1    
    11    5   76 1    
    12    6    7 1    
    13    6   77 1    
    14    6   78 1    
    15    7    8 1    
    16    8    9 1    
    17    8   79 1    
    18    8   80 1    
    19    9   10 ar   
    20    9   14 ar   
    21   10   11 ar   
    22   10   81 1    
    23   11   12 ar   
    24   11   71 1    
    25   12   13 ar   
    26   12   82 1    
    27   13   14 ar   
    28   13   15 1    
    29   14   83 1    
    30   15   16 1    
    31   15   84 1    
    32   15   85 1    
    33   16   17 1    
    34   17   18 1    
    35   17   86 1    
    36   17   87 1    
    37   18   19 1    
    38   18   37 1    
    39   18   88 1    
    40   19   20 am   BACKBONE|DICT|INTERRES
    41   19   89 1    
    42   20   21 2    
    43   20   22 1    
    44   22   23 1    
    45   22   24 1    
    46   22   90 1    
    47   23   91 1    
    48   23   92 1    
    49   23   93 1    
    50   24   25 am   BACKBONE|DICT|INTERRES
    51   24   94 1    
    52   25   26 2    
    53   25   27 1    
    54   27   28 1    
    55   27   29 1    
    56   27   95 1    
    57   28   96 1    
    58   28   97 1    
    59   28   98 1    
    60   29   30 am   BACKBONE|DICT|INTERRES
    61   29   99 1    
    62   30   31 2    
    63   30   32 1    
    64   32   33 1    
    65   32   34 1    
    66   32  100 1    
    67   33  101 1    
    68   33  102 1    
    69   33  103 1    
    70   34   35 am   BACKBONE|DICT|INTERRES
    71   34  104 1    
    72   35   36 2    
    73   37   38 2    
    74   37   39 am   BACKBONE|DICT|INTERRES
    75   39   40 1    
    76   39  105 1    
    77   40   41 1    
    78   40   42 1    
    79   40  106 1    
    80   41  107 1    
    81   41  108 1    
    82   41  109 1    
    83   42   43 2    
    84   42   44 am   BACKBONE|DICT|INTERRES
    85   44   45 1    
    86   44  110 1    
    87   45   46 1    
    88   45   47 1    
    89   45  111 1    
    90   46  112 1    
    91   46  113 1    
    92   46  114 1    
    93   47   48 2    
    94   47   49 am   BACKBONE|DICT|INTERRES
    95   49   50 1    
    96   49  115 1    
    97   50   51 1    
    98   50   52 1    
    99   50  116 1    
   100   51  117 1    
   101   51  118 1    
   102   51  119 1    
   103   52   53 2    
   104   52   54 am   BACKBONE|DICT|INTERRES
   105   54   55 1    
   106   54  120 1    
   107   55   56 1    
   108   55   57 1    
   109   55  121 1    
   110   56  122 1    
   111   56  123 1    
   112   56  124 1    
   113   57   58 2    
   114   57   59 am   BACKBONE|DICT|INTERRES
   115   59   60 1    
   116   59  125 1    
   117   60   61 1    
   118   60   62 1    
   119   60  126 1    
   120   61  127 1    
   121   61  128 1    
   122   61  129 1    
   123   62   63 2    
   124   62   64 am   BACKBONE|DICT|INTERRES
   125   64   65 1    
   126   64  130 1    
   127   65   66 1    
   128   65   69 1    
   129   65  131 1    
   130   66   67 am   BACKBONE|DICT|INTERRES
   131   66   68 2    
   132   67  132 1    
   133   67  133 1    
   134   69   70 1    
   135   69  134 1    
   136   69  135 1    
   137   70   71 1    
   138   71  136 1    
   139   71  137 1    
@<TRIPOS>SUBSTRUCTURE
     1 UNK         1 GROUP             0       ****    0 ROOT    
