@<TRIPOS>MOLECULE
3R137
137   139    1
SMALL
USER_CHARGES


@<TRIPOS>ATOM
      1 CA         28.0142   -6.5629   -6.2318 C.3       0 UNK        -0.2020 
      2 C          27.7972   -6.3163   -4.7462 C.2       0 UNK         0.4855 
      3 O          27.5409   -7.2600   -3.9982 O.2       0 UNK        -0.5197 
      4 N          27.8982   -5.0565   -4.3137 N.am      1 UNK        -0.4892 
      5 CA         27.7107   -4.6114   -2.9361 C.3       1 UNK         0.0835 
      6 C6         29.0212   -4.7563   -2.1196 C.3       12 UNK        -0.0855 
      7 S7         28.8303   -4.3492   -0.3461 S.3       12 UNK        -0.2931 
      8 C8         30.4766   -3.7018    0.1019 C.3       12 UNK         0.0378 
      9 C9         30.9480   -2.5721   -0.8064 C.ar      12 UNK        -0.0802 
     10 C10        32.0964   -2.7417   -1.5858 C.ar      12 UNK        -0.0944 
     11 C11        32.5353   -1.7254   -2.4384 C.ar      12 UNK        -0.0787 
     12 C12        31.8234   -0.5236   -2.4982 C.ar      12 UNK        -0.0862 
     13 C13        30.6804   -0.3356   -1.7152 C.ar      12 UNK        -0.0733 
     14 C14        30.2461   -1.3636   -0.8710 C.ar      12 UNK        -0.0832 
     15 C15        29.9297    0.9874   -1.7619 C.3       12 UNK         0.0240 
     16 S16        28.5098    0.9280   -2.8957 S.3       12 UNK        -0.2522 
     17 C17        29.3217    0.9966   -4.5242 C.3       12 UNK        -0.0967 
     18 CA         28.3482    1.0798   -5.7255 C.3       5 UNK         0.0660 
     19 N          27.5752   -0.1500   -5.9405 N.am      5 UNK        -0.4015 
     20 C          26.9289   -0.4109   -7.0883 C.2       4 UNK         0.4946 
     21 O          26.8877    0.3733   -8.0363 O.2       4 UNK        -0.5353 
     22 CA         26.1648   -1.7351   -7.1925 C.3       4 UNK         0.0277 
     23 CB         27.1223   -2.9306   -7.3230 C.3       4 UNK        -0.1981 
     24 N          25.2764   -1.9129   -6.0470 N.am      4 UNK        -0.4209 
     25 C          24.0793   -1.3192   -5.9303 C.2       3 UNK         0.4942 
     26 O          23.5812   -0.6050   -6.8001 O.2       3 UNK        -0.5208 
     27 CA         23.2999   -1.5522   -4.6237 C.3       3 UNK         0.0250 
     28 CB         22.3036   -2.7105   -4.7922 C.3       3 UNK        -0.1990 
     29 N          24.1576   -1.8169   -3.4663 N.am      3 UNK        -0.4232 
     30 C          25.0103   -0.9295   -2.9366 C.2       2 UNK         0.4993 
     31 O          25.1660    0.2124   -3.3664 O.2       2 UNK        -0.5286 
     32 CA         25.8689   -1.4257   -1.7636 C.3       2 UNK         0.0209 
     33 CB         25.0718   -1.3842   -0.4502 C.3       2 UNK        -0.1931 
     34 N          26.4267   -2.7682   -1.9584 N.am      2 UNK        -0.4546 
     35 C          27.1794   -3.1665   -2.9948 C.2       1 UNK         0.5154 
     36 O          27.4367   -2.4586   -3.9756 O.2       1 UNK        -0.5181 
     37 C          27.4662    2.3496   -5.7260 C.2       5 UNK         0.5014 
     38 O          27.9026    3.3757   -6.2494 O.2       5 UNK        -0.5248 
     39 N          26.2211    2.2509   -5.2296 N.am      6 UNK        -0.4434 
     40 CA         25.2034    3.3058   -5.3249 C.3       6 UNK         0.0363 
     41 CB         23.9837    2.9278   -4.4705 C.3       6 UNK        -0.1936 
     42 C          24.7622    3.6141   -6.7693 C.2       6 UNK         0.5081 
     43 O          24.3450    4.7395   -7.0420 O.2       6 UNK        -0.5248 
     44 N          24.8853    2.6310   -7.6714 N.am      7 UNK        -0.4718 
     45 CA         24.6477    2.7664   -9.1113 C.3       7 UNK         0.0273 
     46 CB         24.0207    1.4609   -9.6332 C.3       7 UNK        -0.1935 
     47 C          25.9341    3.1200   -9.8867 C.2       7 UNK         0.5018 
     48 O          25.9176    3.0834  -11.1176 O.2       7 UNK        -0.5186 
     49 N          27.0197    3.4422   -9.1647 N.am      8 UNK        -0.4240 
     50 CA         28.3654    3.7823   -9.6412 C.3       8 UNK         0.0235 
     51 CB         28.3466    5.0055  -10.5830 C.3       8 UNK        -0.2000 
     52 C          29.1550    2.5970  -10.2292 C.2       8 UNK         0.4941 
     53 O          30.2298    2.8167  -10.7908 O.2       8 UNK        -0.5273 
     54 N          28.6747    1.3593  -10.0461 N.am      9 UNK        -0.4262 
     55 CA         29.3798    0.1281  -10.4055 C.3       9 UNK         0.0264 
     56 CB         28.3565   -0.9376  -10.8412 C.3       9 UNK        -0.1955 
     57 C          30.2524   -0.3187   -9.2201 C.2       9 UNK         0.5031 
     58 O          30.0225   -1.3807   -8.6389 O.2       9 UNK        -0.5390 
     59 N          31.2141    0.5383   -8.8544 N.am      10 UNK        -0.4204 
     60 CA         32.1595    0.3299   -7.7581 C.3       10 UNK         0.0237 
     61 CB         32.8761    1.6574   -7.4605 C.3       10 UNK        -0.1985 
     62 C          33.1740   -0.7860   -8.0646 C.2       10 UNK         0.4970 
     63 O          33.4202   -1.0993   -9.2324 O.2       10 UNK        -0.4914 
     64 N          33.7417   -1.3507   -6.9941 N.am      11 UNK        -0.4285 
     65 CA         34.6981   -2.4675   -7.0077 C.3       11 UNK         0.1007 
     66 C          35.9949   -2.1665   -7.8093 C.2       11 UNK         0.5703 
     67 N          36.5358   -3.1536   -8.5107 N.am      11 UNK        -0.7361 
     68 O          36.5366   -1.0633   -7.7610 O.2       11 UNK        -0.4986 
     69 C69        35.0509   -2.9295   -5.5680 C.3       12 UNK        -0.0947 
     70 S70        33.5789   -3.2232   -4.5274 S.3       12 UNK        -0.2240 
     71 C71        33.7910   -1.9182   -3.2753 C.3       12 UNK         0.0194 
     72 H72        28.4145   -5.6840   -6.7368 H         1 UNK         0.0906 
     73 H73        28.7180   -7.3820   -6.3777 H         1 UNK         0.0906 
     74 H74        27.0728   -6.8333   -6.7092 H         1 UNK         0.0906 
     75 H75        28.0715   -4.2945   -4.9572 H         1 UNK         0.3140 
     76 H76        26.9357   -5.2285   -2.4751 H         1 UNK         0.1085 
     77 H77        29.8021   -4.1459   -2.5740 H         1 UNK         0.0836 
     78 H78        29.3804   -5.7849   -2.1783 H         1 UNK         0.0836 
     79 H79        31.1882   -4.5290    0.0917 H         1 UNK         0.0731 
     80 H80        30.4450   -3.3407    1.1308 H         1 UNK         0.0731 
     81 H81        32.6483   -3.6709   -1.5405 H         1 UNK         0.1312 
     82 H82        32.1621    0.2717   -3.1480 H         1 UNK         0.1406 
     83 H83        29.3575   -1.2276   -0.2693 H         1 UNK         0.1631 
     84 H84        30.5963    1.8015   -2.0505 H         1 UNK         0.0717 
     85 H85        29.5669    1.2345   -0.7631 H         1 UNK         0.0717 
     86 H86        29.9994    1.8524   -4.5379 H         1 UNK         0.0934 
     87 H87        29.9531    0.1133   -4.6314 H         1 UNK         0.0934 
     88 H88        28.9865    1.1766   -6.6073 H         1 UNK         0.0739 
     89 H89        27.5541   -0.8260   -5.1821 H         1 UNK         0.3093 
     90 H90        25.5580   -1.7006   -8.1004 H         1 UNK         0.0818 
     91 H91        27.6924   -2.8665   -8.2504 H         1 UNK         0.0819 
     92 H92        27.8467   -2.9695   -6.5108 H         1 UNK         0.0819 
     93 H93        26.5791   -3.8753   -7.3434 H         1 UNK         0.0819 
     94 H94        25.6496   -2.4184   -5.2545 H         1 UNK         0.3041 
     95 H95        22.7343   -0.6410   -4.4167 H         1 UNK         0.0784 
     96 H96        21.6326   -2.5281   -5.6330 H         1 UNK         0.0793 
     97 H97        22.8115   -3.6573   -4.9804 H         1 UNK         0.0793 
     98 H98        21.6814   -2.8320   -3.9052 H         1 UNK         0.0793 
     99 H99        24.1012   -2.7357   -3.0513 H         1 UNK         0.3024 
    100 H100       26.7094   -0.7419   -1.6593 H         1 UNK         0.1171 
    101 H101       25.7044   -1.6240    0.4048 H         1 UNK         0.0786 
    102 H102       24.6601   -0.3889   -0.2759 H         1 UNK         0.0786 
    103 H103       24.2370   -2.0861   -0.4582 H         1 UNK         0.0786 
    104 H104       26.2964   -3.4165   -1.1944 H         1 UNK         0.2977 
    105 H105       25.9468    1.3986   -4.7457 H         1 UNK         0.3127 
    106 H106       25.6360    4.2207   -4.9147 H         1 UNK         0.0770 
    107 H107       23.5273    1.9976   -4.8119 H         1 UNK         0.0814 
    108 H108       23.2181    3.7036   -4.5141 H         1 UNK         0.0814 
    109 H109       24.2573    2.8031   -3.4227 H         1 UNK         0.0814 
    110 H110       25.2677    1.7409   -7.3747 H         1 UNK         0.2983 
    111 H111       23.9363    3.5755   -9.2901 H         1 UNK         0.0947 
    112 H112       23.7517    1.5465  -10.6867 H         1 UNK         0.0806 
    113 H113       23.1105    1.2128   -9.0870 H         1 UNK         0.0806 
    114 H114       24.7046    0.6170   -9.5392 H         1 UNK         0.0806 
    115 H115       26.9307    3.4120   -8.1551 H         1 UNK         0.3000 
    116 H116       28.9173    4.0772   -8.7475 H         1 UNK         0.0850 
    117 H117       29.3586    5.3596  -10.7831 H         1 UNK         0.0810 
    118 H118       27.7958    5.8372  -10.1437 H         1 UNK         0.0810 
    119 H119       27.8928    4.7714  -11.5462 H         1 UNK         0.0810 
    120 H120       27.8401    1.2332   -9.4777 H         1 UNK         0.3040 
    121 H121       30.0439    0.3098  -11.2533 H         1 UNK         0.0766 
    122 H122       27.7859   -0.6043  -11.7080 H         1 UNK         0.0812 
    123 H123       27.6478   -1.1728  -10.0482 H         1 UNK         0.0812 
    124 H124       28.8560   -1.8668  -11.1182 H         1 UNK         0.0812 
    125 H125       31.3328    1.3751   -9.4118 H         1 UNK         0.3205 
    126 H126       31.5854    0.0374   -6.8759 H         1 UNK         0.0754 
    127 H127       33.5638    1.5554   -6.6199 H         1 UNK         0.0769 
    128 H128       32.1653    2.4424   -7.2007 H         1 UNK         0.0769 
    129 H129       33.4582    2.0011   -8.3168 H         1 UNK         0.0769 
    130 H130       33.4860   -1.0197   -6.0772 H         1 UNK         0.2981 
    131 H131       34.1868   -3.2942   -7.5051 H         1 UNK         0.0541 
    132 H132       36.1079   -4.0659   -8.5446 H         1 UNK         0.3459 
    133 H133       37.3866   -2.9808   -9.0231 H         1 UNK         0.3459 
    134 H134       35.7003   -2.2001   -5.0798 H         1 UNK         0.0612 
    135 H135       35.6207   -3.8598   -5.6031 H         1 UNK         0.0612 
    136 H136       34.6255   -2.1796   -2.6230 H         1 UNK         0.0624 
    137 H137       34.0637   -0.9843   -3.7691 H         1 UNK         0.0624 
@<TRIPOS>BOND
     1    1    2 1    
     2    1   72 1    
     3    1   73 1    
     4    1   74 1    
     5    2    3 2    
     6    2    4 am   BACKBONE|DICT|INTERRES
     7    4    5 1    
     8    4   75 1    
     9    5    6 1    
    10    5   35 1    
    11    5   76 1    
    12    6    7 1    
    13    6   77 1    
    14    6   78 1    
    15    7    8 1    
    16    8    9 1    
    17    8   79 1    
    18    8   80 1    
    19    9   10 ar   
    20    9   14 ar   
    21   10   11 ar   
    22   10   81 1    
    23   11   12 ar   
    24   11   71 1    
    25   12   13 ar   
    26   12   82 1    
    27   13   14 ar   
    28   13   15 1    
    29   14   83 1    
    30   15   16 1    
    31   15   84 1    
    32   15   85 1    
    33   16   17 1    
    34   17   18 1    
    35   17   86 1    
    36   17   87 1    
    37   18   19 1    
    38   18   37 1    
    39   18   88 1    
    40   19   20 am   BACKBONE|DICT|INTERRES
    41   19   89 1    
    42   20   21 2    
    43   20   22 1    
    44   22   23 1    
    45   22   24 1    
    46   22   90 1    
    47   23   91 1    
    48   23   92 1    
    49   23   93 1    
    50   24   25 am   BACKBONE|DICT|INTERRES
    51   24   94 1    
    52   25   26 2    
    53   25   27 1    
    54   27   28 1    
    55   27   29 1    
    56   27   95 1    
    57   28   96 1    
    58   28   97 1    
    59   28   98 1    
    60   29   30 am   BACKBONE|DICT|INTERRES
    61   29   99 1    
    62   30   31 2    
    63   30   32 1    
    64   32   33 1    
    65   32   34 1    
    66   32  100 1    
    67   33  101 1    
    68   33  102 1    
    69   33  103 1    
    70   34   35 am   BACKBONE|DICT|INTERRES
    71   34  104 1    
    72   35   36 2    
    73   37   38 2    
    74   37   39 am   BACKBONE|DICT|INTERRES
    75   39   40 1    
    76   39  105 1    
    77   40   41 1    
    78   40   42 1    
    79   40  106 1    
    80   41  107 1    
    81   41  108 1    
    82   41  109 1    
    83   42   43 2    
    84   42   44 am   BACKBONE|DICT|INTERRES
    85   44   45 1    
    86   44  110 1    
    87   45   46 1    
    88   45   47 1    
    89   45  111 1    
    90   46  112 1    
    91   46  113 1    
    92   46  114 1    
    93   47   48 2    
    94   47   49 am   BACKBONE|DICT|INTERRES
    95   49   50 1    
    96   49  115 1    
    97   50   51 1    
    98   50   52 1    
    99   50  116 1    
   100   51  117 1    
   101   51  118 1    
   102   51  119 1    
   103   52   53 2    
   104   52   54 am   BACKBONE|DICT|INTERRES
   105   54   55 1    
   106   54  120 1    
   107   55   56 1    
   108   55   57 1    
   109   55  121 1    
   110   56  122 1    
   111   56  123 1    
   112   56  124 1    
   113   57   58 2    
   114   57   59 am   BACKBONE|DICT|INTERRES
   115   59   60 1    
   116   59  125 1    
   117   60   61 1    
   118   60   62 1    
   119   60  126 1    
   120   61  127 1    
   121   61  128 1    
   122   61  129 1    
   123   62   63 2    
   124   62   64 am   BACKBONE|DICT|INTERRES
   125   64   65 1    
   126   64  130 1    
   127   65   66 1    
   128   65   69 1    
   129   65  131 1    
   130   66   67 am   BACKBONE|DICT|INTERRES
   131   66   68 2    
   132   67  132 1    
   133   67  133 1    
   134   69   70 1    
   135   69  134 1    
   136   69  135 1    
   137   70   71 1    
   138   71  136 1    
   139   71  137 1    
@<TRIPOS>SUBSTRUCTURE
     1 UNK         1 GROUP             0       ****    0 ROOT    
