@<TRIPOS>MOLECULE
3R137
137   139    1
SMALL
USER_CHARGES


@<TRIPOS>ATOM
      1 CA         26.5706   -3.1722    2.2759 C.3       0 UNK        -0.2020 
      2 C          27.6083   -3.8882    1.4149 C.2       0 UNK         0.4855 
      3 O          27.8040   -5.0895    1.5847 O.2       0 UNK        -0.5197 
      4 N          28.3054   -3.2140    0.4879 N.am      1 UNK        -0.4892 
      5 CA         28.1929   -1.7924    0.1263 C.3       1 UNK         0.0835 
      6 C6         29.3278   -1.3337   -0.8267 C.3       12 UNK        -0.0855 
      7 S7         31.0237   -1.7410   -0.2727 S.3       12 UNK        -0.2931 
      8 C8         31.3508   -3.3948   -0.9853 C.3       12 UNK         0.0378 
      9 C9         31.1567   -3.4537   -2.4955 C.ar      12 UNK        -0.0802 
     10 C10        32.1974   -3.1056   -3.3598 C.ar      12 UNK        -0.0944 
     11 C11        32.0179   -3.1694   -4.7450 C.ar      12 UNK        -0.0787 
     12 C12        30.7771   -3.5575   -5.2642 C.ar      12 UNK        -0.0862 
     13 C13        29.7210   -3.9018   -4.4093 C.ar      12 UNK        -0.0733 
     14 C14        29.9350   -3.8733   -3.0294 C.ar      12 UNK        -0.0832 
     15 C15        28.3167   -4.2568   -4.8987 C.3       12 UNK         0.0240 
     16 S16        28.1222   -4.5077   -6.6971 S.3       12 UNK        -0.2522 
     17 C17        26.3746   -3.9952   -6.9114 C.3       12 UNK        -0.0967 
     18 CA         26.0935   -2.6030   -7.5651 C.3       5 UNK         0.0660 
     19 N          24.9012   -1.9758   -6.9977 N.am      5 UNK        -0.4015 
     20 C          23.9673   -1.3265   -7.7052 C.2       4 UNK         0.4946 
     21 O          23.9423   -1.2812   -8.9356 O.2       4 UNK        -0.5353 
     22 CA         22.8748   -0.5860   -6.9096 C.3       4 UNK         0.0277 
     23 CB         21.6293   -1.4738   -6.7549 C.3       4 UNK        -0.1981 
     24 N          23.3070   -0.1234   -5.5861 N.am      4 UNK        -0.4209 
     25 C          24.3024    0.7480   -5.3676 C.2       3 UNK         0.4942 
     26 O          24.9664    1.2677   -6.2618 O.2       3 UNK        -0.5208 
     27 CA         24.6615    1.0494   -3.9045 C.3       3 UNK         0.0250 
     28 CB         23.8042    2.2078   -3.3710 C.3       3 UNK        -0.1990 
     29 N          24.5576   -0.0982   -2.9950 N.am      3 UNK        -0.4232 
     30 C          25.1549   -1.2876   -3.1568 C.2       2 UNK         0.4993 
     31 O          25.8034   -1.6077   -4.1570 O.2       2 UNK        -0.5286 
     32 CA         25.0079   -2.2923   -2.0035 C.3       2 UNK         0.0209 
     33 CB         24.5938   -3.6771   -2.5314 C.3       2 UNK        -0.1931 
     34 N          26.2598   -2.4201   -1.2566 N.am      2 UNK        -0.4546 
     35 C          26.8296   -1.4562   -0.5165 C.2       1 UNK         0.5154 
     36 O          26.3206   -0.3531   -0.3178 O.2       1 UNK        -0.5181 
     37 C          27.2531   -1.5885   -7.5080 C.2       5 UNK         0.5014 
     38 O          27.8757   -1.3253   -8.5372 O.2       5 UNK        -0.5248 
     39 N          27.5193   -1.0339   -6.3163 N.am      6 UNK        -0.4434 
     40 CA         28.6976   -0.2164   -6.0247 C.3       6 UNK         0.0363 
     41 CB         28.7639    0.0723   -4.5188 C.3       6 UNK        -0.1936 
     42 C          28.7985    1.0811   -6.8402 C.2       6 UNK         0.5081 
     43 O          29.9032    1.4354   -7.2490 O.2       6 UNK        -0.5248 
     44 N          27.6706    1.7610   -7.0920 N.am      7 UNK        -0.4718 
     45 CA         27.6372    2.9761   -7.9131 C.3       7 UNK         0.0273 
     46 CB         26.3424    3.7598   -7.6478 C.3       7 UNK        -0.1935 
     47 C          27.7858    2.6742   -9.4125 C.2       7 UNK         0.5018 
     48 O          28.3871    3.4748  -10.1281 O.2       7 UNK        -0.5186 
     49 N          27.2590    1.5240   -9.8568 N.am      8 UNK        -0.4240 
     50 CA         27.3646    1.0427  -11.2364 C.3       8 UNK         0.0235 
     51 CB         26.3282   -0.0666  -11.4805 C.3       8 UNK        -0.2000 
     52 C          28.7845    0.5551  -11.5644 C.2       8 UNK         0.4941 
     53 O          29.3063    0.8754  -12.6326 O.2       8 UNK        -0.5273 
     54 N          29.3917   -0.1834  -10.6261 N.am      9 UNK        -0.4262 
     55 CA         30.7734   -0.6636  -10.6956 C.3       9 UNK         0.0264 
     56 CB         30.9289   -1.8414   -9.7211 C.3       9 UNK        -0.1955 
     57 C          31.8251    0.4291  -10.4137 C.2       9 UNK         0.5031 
     58 O          33.0004    0.2082  -10.7097 O.2       9 UNK        -0.5390 
     59 N          31.3914    1.5725   -9.8601 N.am      10 UNK        -0.4204 
     60 CA         32.1840    2.7400   -9.4543 C.3       10 UNK         0.0237 
     61 CB         32.8428    3.4197  -10.6738 C.3       10 UNK        -0.1985 
     62 C          33.1781    2.4096   -8.3238 C.2       10 UNK         0.4970 
     63 O          34.3483    2.7918   -8.3899 O.2       10 UNK        -0.4914 
     64 N          32.6813    1.7002   -7.3051 N.am      11 UNK        -0.4285 
     65 CA         33.4349    1.2682   -6.1179 C.3       11 UNK         0.1007 
     66 C          33.5886    2.3688   -5.0295 C.2       11 UNK         0.5703 
     67 N          32.9023    3.5022   -5.1235 N.am      11 UNK        -0.7361 
     68 O          34.3574    2.1961   -4.0867 O.2       11 UNK        -0.4986 
     69 C69        32.8428   -0.0333   -5.5164 C.3       12 UNK        -0.0947 
     70 S70        32.8284   -1.3956   -6.7268 S.3       12 UNK        -0.2240 
     71 C71        33.1725   -2.8423   -5.6821 C.3       12 UNK         0.0194 
     72 H72        25.6409   -3.0382    1.7238 H         1 UNK         0.0906 
     73 H73        26.3461   -3.7625    3.1641 H         1 UNK         0.0906 
     74 H74        26.9230   -2.1995    2.6157 H         1 UNK         0.0906 
     75 H75        29.0194   -3.7184   -0.0134 H         1 UNK         0.3140 
     76 H76        28.2793   -1.2056    1.0428 H         1 UNK         0.1085 
     77 H77        29.2893   -0.2473   -0.9315 H         1 UNK         0.0836 
     78 H78        29.1709   -1.7108   -1.8338 H         1 UNK         0.0836 
     79 H79        32.3777   -3.6735   -0.7434 H         1 UNK         0.0731 
     80 H80        30.7262   -4.1407   -0.4938 H         1 UNK         0.0731 
     81 H81        33.1492   -2.7933   -2.9520 H         1 UNK         0.1312 
     82 H82        30.6457   -3.5732   -6.3366 H         1 UNK         0.1406 
     83 H83        29.1280   -4.1475   -2.3646 H         1 UNK         0.1631 
     84 H84        27.6588   -3.4487   -4.5792 H         1 UNK         0.0717 
     85 H85        27.9689   -5.1578   -4.3913 H         1 UNK         0.0717 
     86 H86        25.8818   -4.7659   -7.5060 H         1 UNK         0.0934 
     87 H87        25.8866   -4.0577   -5.9371 H         1 UNK         0.0934 
     88 H88        25.9251   -2.7935   -8.6276 H         1 UNK         0.0739 
     89 H89        24.8736   -1.9093   -5.9867 H         1 UNK         0.3093 
     90 H90        22.5972    0.2968   -7.4896 H         1 UNK         0.0818 
     91 H91        20.8107   -0.9318   -6.2810 H         1 UNK         0.0819 
     92 H92        21.2692   -1.8131   -7.7273 H         1 UNK         0.0819 
     93 H93        21.8370   -2.3619   -6.1567 H         1 UNK         0.0819 
     94 H94        22.8206   -0.5026   -4.7867 H         1 UNK         0.3041 
     95 H95        25.7031    1.3732   -3.8915 H         1 UNK         0.0784 
     96 H96        23.8803    3.0813   -4.0206 H         1 UNK         0.0793 
     97 H97        22.7493    1.9370   -3.3107 H         1 UNK         0.0793 
     98 H98        24.1294    2.5179   -2.3777 H         1 UNK         0.0793 
     99 H99        24.0739    0.0740   -2.1250 H         1 UNK         0.3024 
    100 H100       24.2321   -1.9418   -1.3190 H         1 UNK         0.1171 
    101 H101       23.6645   -3.6166   -3.0995 H         1 UNK         0.0786 
    102 H102       24.4269   -4.3790   -1.7141 H         1 UNK         0.0786 
    103 H103       25.3503   -4.1051   -3.1905 H         1 UNK         0.0786 
    104 H104       26.7508   -3.2965   -1.3495 H         1 UNK         0.2977 
    105 H105       26.9326   -1.2772   -5.5196 H         1 UNK         0.3127 
    106 H106       29.5709   -0.8195   -6.2833 H         1 UNK         0.0770 
    107 H107       27.8867    0.6166   -4.1716 H         1 UNK         0.0814 
    108 H108       29.6405    0.6707   -4.2686 H         1 UNK         0.0814 
    109 H109       28.8308   -0.8549   -3.9518 H         1 UNK         0.0814 
    110 H110       26.7791    1.4240   -6.7334 H         1 UNK         0.2983 
    111 H111       28.4767    3.6106   -7.6195 H         1 UNK         0.0947 
    112 H112       26.3516    4.7145   -8.1752 H         1 UNK         0.0806 
    113 H113       26.2177    3.9754   -6.5865 H         1 UNK         0.0806 
    114 H114       25.4613    3.2125   -7.9848 H         1 UNK         0.0806 
    115 H115       26.8220    0.9065   -9.1868 H         1 UNK         0.3000 
    116 H116       27.1347    1.8741  -11.9065 H         1 UNK         0.0850 
    117 H117       26.3722   -0.4204  -12.5114 H         1 UNK         0.0810 
    118 H118       25.3139    0.2922  -11.3040 H         1 UNK         0.0810 
    119 H119       26.4916   -0.9289  -10.8332 H         1 UNK         0.0810 
    120 H120       28.8560   -0.4653   -9.8049 H         1 UNK         0.3040 
    121 H121       30.9588   -1.0335  -11.7061 H         1 UNK         0.0766 
    122 H122       31.9530   -2.2172   -9.7126 H         1 UNK         0.0812 
    123 H123       30.6754   -1.5496   -8.7016 H         1 UNK         0.0812 
    124 H124       30.2793   -2.6721   -9.9969 H         1 UNK         0.0812 
    125 H125       30.4128    1.6123   -9.6090 H         1 UNK         0.3205 
    126 H126       31.4723    3.4507   -9.0313 H         1 UNK         0.0754 
    127 H127       33.3229    4.3557  -10.3860 H         1 UNK         0.0769 
    128 H128       32.1048    3.6567  -11.4403 H         1 UNK         0.0769 
    129 H129       33.6079    2.7893  -11.1279 H         1 UNK         0.0769 
    130 H130       31.6890    1.4682   -7.3120 H         1 UNK         0.2981 
    131 H131       34.4517    1.0368   -6.4411 H         1 UNK         0.0541 
    132 H132       32.2663    3.6501   -5.8901 H         1 UNK         0.3459 
    133 H133       33.0166    4.2096   -4.4152 H         1 UNK         0.3459 
    134 H134       31.8217    0.1295   -5.1700 H         1 UNK         0.0612 
    135 H135       33.4187   -0.3475   -4.6440 H         1 UNK         0.0612 
    136 H136       33.3544   -3.7018   -6.3285 H         1 UNK         0.0624 
    137 H137       34.0975   -2.6746   -5.1283 H         1 UNK         0.0624 
@<TRIPOS>BOND
     1    1    2 1    
     2    1   72 1    
     3    1   73 1    
     4    1   74 1    
     5    2    3 2    
     6    2    4 am   BACKBONE|DICT|INTERRES
     7    4    5 1    
     8    4   75 1    
     9    5    6 1    
    10    5   35 1    
    11    5   76 1    
    12    6    7 1    
    13    6   77 1    
    14    6   78 1    
    15    7    8 1    
    16    8    9 1    
    17    8   79 1    
    18    8   80 1    
    19    9   10 ar   
    20    9   14 ar   
    21   10   11 ar   
    22   10   81 1    
    23   11   12 ar   
    24   11   71 1    
    25   12   13 ar   
    26   12   82 1    
    27   13   14 ar   
    28   13   15 1    
    29   14   83 1    
    30   15   16 1    
    31   15   84 1    
    32   15   85 1    
    33   16   17 1    
    34   17   18 1    
    35   17   86 1    
    36   17   87 1    
    37   18   19 1    
    38   18   37 1    
    39   18   88 1    
    40   19   20 am   BACKBONE|DICT|INTERRES
    41   19   89 1    
    42   20   21 2    
    43   20   22 1    
    44   22   23 1    
    45   22   24 1    
    46   22   90 1    
    47   23   91 1    
    48   23   92 1    
    49   23   93 1    
    50   24   25 am   BACKBONE|DICT|INTERRES
    51   24   94 1    
    52   25   26 2    
    53   25   27 1    
    54   27   28 1    
    55   27   29 1    
    56   27   95 1    
    57   28   96 1    
    58   28   97 1    
    59   28   98 1    
    60   29   30 am   BACKBONE|DICT|INTERRES
    61   29   99 1    
    62   30   31 2    
    63   30   32 1    
    64   32   33 1    
    65   32   34 1    
    66   32  100 1    
    67   33  101 1    
    68   33  102 1    
    69   33  103 1    
    70   34   35 am   BACKBONE|DICT|INTERRES
    71   34  104 1    
    72   35   36 2    
    73   37   38 2    
    74   37   39 am   BACKBONE|DICT|INTERRES
    75   39   40 1    
    76   39  105 1    
    77   40   41 1    
    78   40   42 1    
    79   40  106 1    
    80   41  107 1    
    81   41  108 1    
    82   41  109 1    
    83   42   43 2    
    84   42   44 am   BACKBONE|DICT|INTERRES
    85   44   45 1    
    86   44  110 1    
    87   45   46 1    
    88   45   47 1    
    89   45  111 1    
    90   46  112 1    
    91   46  113 1    
    92   46  114 1    
    93   47   48 2    
    94   47   49 am   BACKBONE|DICT|INTERRES
    95   49   50 1    
    96   49  115 1    
    97   50   51 1    
    98   50   52 1    
    99   50  116 1    
   100   51  117 1    
   101   51  118 1    
   102   51  119 1    
   103   52   53 2    
   104   52   54 am   BACKBONE|DICT|INTERRES
   105   54   55 1    
   106   54  120 1    
   107   55   56 1    
   108   55   57 1    
   109   55  121 1    
   110   56  122 1    
   111   56  123 1    
   112   56  124 1    
   113   57   58 2    
   114   57   59 am   BACKBONE|DICT|INTERRES
   115   59   60 1    
   116   59  125 1    
   117   60   61 1    
   118   60   62 1    
   119   60  126 1    
   120   61  127 1    
   121   61  128 1    
   122   61  129 1    
   123   62   63 2    
   124   62   64 am   BACKBONE|DICT|INTERRES
   125   64   65 1    
   126   64  130 1    
   127   65   66 1    
   128   65   69 1    
   129   65  131 1    
   130   66   67 am   BACKBONE|DICT|INTERRES
   131   66   68 2    
   132   67  132 1    
   133   67  133 1    
   134   69   70 1    
   135   69  134 1    
   136   69  135 1    
   137   70   71 1    
   138   71  136 1    
   139   71  137 1    
@<TRIPOS>SUBSTRUCTURE
     1 UNK         1 GROUP             0       ****    0 ROOT    
