@<TRIPOS>MOLECULE
3R137
137   139    1
SMALL
USER_CHARGES


@<TRIPOS>ATOM
      1 CA         25.0041   -6.0337   -5.2080 C.3       0 UNK        -0.2020 
      2 C          25.3587   -5.3412   -3.9013 C.2       0 UNK         0.4855 
      3 O          24.4642   -4.9015   -3.1787 O.2       0 UNK        -0.5197 
      4 N          26.6607   -5.2324   -3.6056 N.am      1 UNK        -0.4892 
      5 CA         27.2462   -4.6023   -2.4153 C.3       1 UNK         0.0835 
      6 C6         28.7867   -4.7550   -2.4477 C.3       12 UNK        -0.0855 
      7 S7         29.5879   -4.3311   -0.8670 S.3       12 UNK        -0.2931 
      8 C8         31.1961   -3.7040   -1.4525 C.3       12 UNK         0.0378 
      9 C9         31.0882   -2.3451   -2.1343 C.ar      12 UNK        -0.0802 
     10 C10        31.3985   -2.2011   -3.4918 C.ar      12 UNK        -0.0944 
     11 C11        31.3669   -0.9394   -4.0946 C.ar      12 UNK        -0.0787 
     12 C12        31.0196    0.1781   -3.3326 C.ar      12 UNK        -0.0862 
     13 C13        30.6590    0.0432   -1.9886 C.ar      12 UNK        -0.0733 
     14 C14        30.7103   -1.2209   -1.3934 C.ar      12 UNK        -0.0832 
     15 C15        30.2113    1.2495   -1.1661 C.3       12 UNK         0.0240 
     16 S16        29.0781    2.3812   -2.0496 S.3       12 UNK        -0.2522 
     17 C17        27.8014    1.2467   -2.6942 C.3       12 UNK        -0.0967 
     18 CA         27.7798    1.2285   -4.2478 C.3       5 UNK         0.0660 
     19 N          27.4200   -0.0850   -4.7830 N.am      5 UNK        -0.4015 
     20 C          27.4437   -0.4371   -6.0765 C.2       4 UNK         0.4946 
     21 O          27.8956    0.2710   -6.9766 O.2       4 UNK        -0.5353 
     22 CA         26.7983   -1.7872   -6.4339 C.3       4 UNK         0.0277 
     23 CB         27.8023   -2.9447   -6.3005 C.3       4 UNK        -0.1981 
     24 N          25.6139   -2.0545   -5.6118 N.am      4 UNK        -0.4209 
     25 C          24.4540   -1.3884   -5.7207 C.2       3 UNK         0.4942 
     26 O          24.2372   -0.5359   -6.5793 O.2       3 UNK        -0.5208 
     27 CA         23.3700   -1.6802   -4.6694 C.3       3 UNK         0.0250 
     28 CB         22.4598   -2.8323   -5.1209 C.3       3 UNK        -0.1990 
     29 N          23.9357   -1.9706   -3.3495 N.am      3 UNK        -0.4232 
     30 C          24.5178   -1.0438   -2.5727 C.2       2 UNK         0.4993 
     31 O          24.5847    0.1487   -2.8716 O.2       2 UNK        -0.5286 
     32 CA         25.1961   -1.5321   -1.2791 C.3       2 UNK         0.0209 
     33 CB         24.1884   -1.5630   -0.1197 C.3       2 UNK        -0.1931 
     34 N          25.8306   -2.8482   -1.4158 N.am      2 UNK        -0.4546 
     35 C          26.8059   -3.1276   -2.2918 C.2       1 UNK         0.5154 
     36 O          27.2965   -2.2831   -3.0407 O.2       1 UNK        -0.5181 
     37 C          26.8747    2.3378   -4.8186 C.2       5 UNK         0.5014 
     38 O          27.3876    3.3221   -5.3519 O.2       5 UNK        -0.5248 
     39 N          25.5497    2.1383   -4.7359 N.am      6 UNK        -0.4434 
     40 CA         24.5293    3.0488   -5.2664 C.3       6 UNK         0.0363 
     41 CB         23.1340    2.5578   -4.8503 C.3       6 UNK        -0.1936 
     42 C          24.6055    3.2345   -6.7926 C.2       6 UNK         0.5081 
     43 O          24.4364    4.3549   -7.2741 O.2       6 UNK        -0.5248 
     44 N          24.8831    2.1459   -7.5229 N.am      7 UNK        -0.4718 
     45 CA         25.1005    2.1464   -8.9729 C.3       7 UNK         0.0273 
     46 CB         24.9782    0.7056   -9.4956 C.3       7 UNK        -0.1935 
     47 C          26.4526    2.7484   -9.4013 C.2       7 UNK         0.5018 
     48 O          26.6150    3.0461  -10.5855 O.2       7 UNK        -0.5186 
     49 N          27.3909    2.8938   -8.4525 N.am      8 UNK        -0.4240 
     50 CA         28.7863    3.3118   -8.6253 C.3       8 UNK         0.0235 
     51 CB         28.8727    4.7871   -9.0715 C.3       8 UNK        -0.2000 
     52 C          29.5636    2.3467   -9.5411 C.2       8 UNK         0.4941 
     53 O          30.1957    2.7792  -10.5081 O.2       8 UNK        -0.5273 
     54 N          29.4692    1.0465   -9.2301 N.am      9 UNK        -0.4262 
     55 CA         30.1204   -0.0470   -9.9544 C.3       9 UNK         0.0264 
     56 CB         29.6134   -1.3818   -9.3882 C.3       9 UNK        -0.1955 
     57 C          31.6554    0.0087   -9.8670 C.2       9 UNK         0.5031 
     58 O          32.2056    0.5223   -8.8893 O.2       9 UNK        -0.5390 
     59 N          32.3228   -0.5759  -10.8697 N.am      10 UNK        -0.4204 
     60 CA         33.7818   -0.6643  -10.9847 C.3       10 UNK         0.0237 
     61 CB         34.1522   -0.8610  -12.4674 C.3       10 UNK        -0.1985 
     62 C          34.3827   -1.7546  -10.0723 C.2       10 UNK         0.4970 
     63 O          35.0445   -2.6733  -10.5590 O.2       10 UNK        -0.4914 
     64 N          34.1376   -1.6343   -8.7635 N.am      11 UNK        -0.4285 
     65 CA         34.6963   -2.4921   -7.7053 C.3       11 UNK         0.1007 
     66 C          36.2074   -2.2623   -7.4027 C.2       11 UNK         0.5703 
     67 N          36.8358   -1.2029   -7.8999 N.am      11 UNK        -0.7361 
     68 O          36.8253   -3.0728   -6.7159 O.2       11 UNK        -0.4986 
     69 C69        33.8319   -2.4516   -6.4152 C.3       12 UNK        -0.0947 
     70 S70        33.5126   -0.7542   -5.8142 S.3       12 UNK        -0.2240 
     71 C71        31.7099   -0.7683   -5.5659 C.3       12 UNK         0.0194 
     72 H72        24.1333   -6.6744   -5.0707 H         1 UNK         0.0906 
     73 H73        24.7688   -5.2968   -5.9753 H         1 UNK         0.0906 
     74 H74        25.8227   -6.6547   -5.5714 H         1 UNK         0.0906 
     75 H75        27.3326   -5.6120   -4.2573 H         1 UNK         0.3140 
     76 H76        26.8702   -5.1475   -1.5469 H         1 UNK         0.1085 
     77 H77        29.2136   -4.1589   -3.2562 H         1 UNK         0.0836 
     78 H78        29.0536   -5.7899   -2.6687 H         1 UNK         0.0836 
     79 H79        31.6482   -4.4409   -2.1184 H         1 UNK         0.0731 
     80 H80        31.8685   -3.6153   -0.5980 H         1 UNK         0.0731 
     81 H81        31.6857   -3.0642   -4.0765 H         1 UNK         0.1312 
     82 H82        31.0088    1.1556   -3.7941 H         1 UNK         0.1406 
     83 H83        30.4553   -1.3369   -0.3486 H         1 UNK         0.1631 
     84 H84        31.0939    1.8090   -0.8541 H         1 UNK         0.0717 
     85 H85        29.7140    0.9216   -0.2518 H         1 UNK         0.0717 
     86 H86        27.9966    0.2465   -2.3057 H         1 UNK         0.0934 
     87 H87        26.8350    1.5280   -2.2717 H         1 UNK         0.0934 
     88 H88        28.7881    1.4228   -4.6175 H         1 UNK         0.0739 
     89 H89        27.1458   -0.7925   -4.1052 H         1 UNK         0.3093 
     90 H90        26.4793   -1.7370   -7.4770 H         1 UNK         0.0818 
     91 H91        28.6338   -2.8213   -6.9921 H         1 UNK         0.0819 
     92 H92        27.3366   -3.9030   -6.5295 H         1 UNK         0.0819 
     93 H93        28.2303   -3.0075   -5.3010 H         1 UNK         0.0819 
     94 H94        25.7356   -2.6861   -4.8340 H         1 UNK         0.3041 
     95 H95        22.7509   -0.7851   -4.5799 H         1 UNK         0.0784 
     96 H96        21.9966   -2.6068   -6.0825 H         1 UNK         0.0793 
     97 H97        23.0082   -3.7661   -5.2361 H         1 UNK         0.0793 
     98 H98        21.6546   -3.0038   -4.4064 H         1 UNK         0.0793 
     99 H99        23.9600   -2.9445   -3.0600 H         1 UNK         0.3024 
    100 H100       25.9795   -0.8120   -1.0333 H         1 UNK         0.1171 
    101 H101       24.6750   -1.8157    0.8225 H         1 UNK         0.0786 
    102 H102       23.7169   -0.5880    0.0126 H         1 UNK         0.0786 
    103 H103       23.3932   -2.2891   -0.2937 H         1 UNK         0.0786 
    104 H104       25.4365   -3.6018   -0.8703 H         1 UNK         0.2977 
    105 H105       25.2109    1.3237   -4.2277 H         1 UNK         0.3127 
    106 H106       24.6964    4.0258   -4.8082 H         1 UNK         0.0770 
    107 H107       22.9072    1.5808   -5.2775 H         1 UNK         0.0814 
    108 H108       22.3608    3.2488   -5.1885 H         1 UNK         0.0814 
    109 H109       23.0470    2.4779   -3.7665 H         1 UNK         0.0814 
    110 H110       24.9198    1.2417   -7.0594 H         1 UNK         0.2983 
    111 H111       24.3158    2.7478   -9.4371 H         1 UNK         0.0947 
    112 H112       25.0949    0.6692  -10.5796 H         1 UNK         0.0806 
    113 H113       24.0028    0.2789   -9.2609 H         1 UNK         0.0806 
    114 H114       25.7411    0.0573   -9.0631 H         1 UNK         0.0806 
    115 H115       27.1475    2.6007   -7.5138 H         1 UNK         0.3000 
    116 H116       29.2494    3.2380   -7.6399 H         1 UNK         0.0850 
    117 H117       29.9092    5.1255   -9.0951 H         1 UNK         0.0810 
    118 H118       28.3338    5.4394   -8.3844 H         1 UNK         0.0810 
    119 H119       28.4603    4.9362  -10.0698 H         1 UNK         0.0810 
    120 H120       28.9244    0.7859   -8.4087 H         1 UNK         0.3040 
    121 H121       29.8251    0.0296  -11.0029 H         1 UNK         0.0766 
    122 H122       28.5256   -1.4451   -9.4249 H         1 UNK         0.0812 
    123 H123       29.9243   -1.5068   -8.3510 H         1 UNK         0.0812 
    124 H124       30.0081   -2.2280   -9.9517 H         1 UNK         0.0812 
    125 H125       31.7922   -1.0162  -11.6081 H         1 UNK         0.3205 
    126 H126       34.2110    0.2876  -10.6643 H         1 UNK         0.0754 
    127 H127       35.2348   -0.8852  -12.6008 H         1 UNK         0.0769 
    128 H128       33.7723   -0.0452  -13.0829 H         1 UNK         0.0769 
    129 H129       33.7533   -1.7954  -12.8645 H         1 UNK         0.0769 
    130 H130       33.5698   -0.8507   -8.4533 H         1 UNK         0.2981 
    131 H131       34.6428   -3.5173   -8.0765 H         1 UNK         0.0541 
    132 H132       37.8149   -1.0713   -7.7008 H         1 UNK         0.3459 
    133 H133       36.3368   -0.5262   -8.4536 H         1 UNK         0.3459 
    134 H134       34.2943   -3.0248   -5.6096 H         1 UNK         0.0612 
    135 H135       32.8850   -2.9531   -6.6155 H         1 UNK         0.0612 
    136 H136       31.3047    0.1731   -5.9411 H         1 UNK         0.0624 
    137 H137       31.2303   -1.5483   -6.1574 H         1 UNK         0.0624 
@<TRIPOS>BOND
     1    1    2 1    
     2    1   72 1    
     3    1   73 1    
     4    1   74 1    
     5    2    3 2    
     6    2    4 am   BACKBONE|DICT|INTERRES
     7    4    5 1    
     8    4   75 1    
     9    5    6 1    
    10    5   35 1    
    11    5   76 1    
    12    6    7 1    
    13    6   77 1    
    14    6   78 1    
    15    7    8 1    
    16    8    9 1    
    17    8   79 1    
    18    8   80 1    
    19    9   10 ar   
    20    9   14 ar   
    21   10   11 ar   
    22   10   81 1    
    23   11   12 ar   
    24   11   71 1    
    25   12   13 ar   
    26   12   82 1    
    27   13   14 ar   
    28   13   15 1    
    29   14   83 1    
    30   15   16 1    
    31   15   84 1    
    32   15   85 1    
    33   16   17 1    
    34   17   18 1    
    35   17   86 1    
    36   17   87 1    
    37   18   19 1    
    38   18   37 1    
    39   18   88 1    
    40   19   20 am   BACKBONE|DICT|INTERRES
    41   19   89 1    
    42   20   21 2    
    43   20   22 1    
    44   22   23 1    
    45   22   24 1    
    46   22   90 1    
    47   23   91 1    
    48   23   92 1    
    49   23   93 1    
    50   24   25 am   BACKBONE|DICT|INTERRES
    51   24   94 1    
    52   25   26 2    
    53   25   27 1    
    54   27   28 1    
    55   27   29 1    
    56   27   95 1    
    57   28   96 1    
    58   28   97 1    
    59   28   98 1    
    60   29   30 am   BACKBONE|DICT|INTERRES
    61   29   99 1    
    62   30   31 2    
    63   30   32 1    
    64   32   33 1    
    65   32   34 1    
    66   32  100 1    
    67   33  101 1    
    68   33  102 1    
    69   33  103 1    
    70   34   35 am   BACKBONE|DICT|INTERRES
    71   34  104 1    
    72   35   36 2    
    73   37   38 2    
    74   37   39 am   BACKBONE|DICT|INTERRES
    75   39   40 1    
    76   39  105 1    
    77   40   41 1    
    78   40   42 1    
    79   40  106 1    
    80   41  107 1    
    81   41  108 1    
    82   41  109 1    
    83   42   43 2    
    84   42   44 am   BACKBONE|DICT|INTERRES
    85   44   45 1    
    86   44  110 1    
    87   45   46 1    
    88   45   47 1    
    89   45  111 1    
    90   46  112 1    
    91   46  113 1    
    92   46  114 1    
    93   47   48 2    
    94   47   49 am   BACKBONE|DICT|INTERRES
    95   49   50 1    
    96   49  115 1    
    97   50   51 1    
    98   50   52 1    
    99   50  116 1    
   100   51  117 1    
   101   51  118 1    
   102   51  119 1    
   103   52   53 2    
   104   52   54 am   BACKBONE|DICT|INTERRES
   105   54   55 1    
   106   54  120 1    
   107   55   56 1    
   108   55   57 1    
   109   55  121 1    
   110   56  122 1    
   111   56  123 1    
   112   56  124 1    
   113   57   58 2    
   114   57   59 am   BACKBONE|DICT|INTERRES
   115   59   60 1    
   116   59  125 1    
   117   60   61 1    
   118   60   62 1    
   119   60  126 1    
   120   61  127 1    
   121   61  128 1    
   122   61  129 1    
   123   62   63 2    
   124   62   64 am   BACKBONE|DICT|INTERRES
   125   64   65 1    
   126   64  130 1    
   127   65   66 1    
   128   65   69 1    
   129   65  131 1    
   130   66   67 am   BACKBONE|DICT|INTERRES
   131   66   68 2    
   132   67  132 1    
   133   67  133 1    
   134   69   70 1    
   135   69  134 1    
   136   69  135 1    
   137   70   71 1    
   138   71  136 1    
   139   71  137 1    
@<TRIPOS>SUBSTRUCTURE
     1 UNK         1 GROUP             0       ****    0 ROOT    
