@<TRIPOS>MOLECULE
3R137
137   139    1
SMALL
USER_CHARGES


@<TRIPOS>ATOM
      1 CA         27.7701   -7.4454   -2.0217 C.3       0 UNK        -0.2020 
      2 C          27.6051   -6.0260   -1.4994 C.2       0 UNK         0.4855 
      3 O          26.8988   -5.8147   -0.5127 O.2       0 UNK        -0.5197 
      4 N          28.2600   -5.0548   -2.1472 N.am      1 UNK        -0.4892 
      5 CA         28.1818   -3.6251   -1.8231 C.3       1 UNK         0.0835 
      6 C6         29.3148   -2.8208   -2.5081 C.3       12 UNK        -0.0855 
      7 S7         30.9721   -3.4454   -2.0608 S.3       12 UNK        -0.2931 
      8 C8         31.7630   -1.9748   -1.3344 C.3       12 UNK         0.0378 
      9 C9         32.0825   -0.9349   -2.3979 C.ar      12 UNK        -0.0802 
     10 C10        33.1283   -1.1569   -3.2970 C.ar      12 UNK        -0.0944 
     11 C11        33.4245   -0.2132   -4.2820 C.ar      12 UNK        -0.0787 
     12 C12        32.6559    0.9501   -4.3731 C.ar      12 UNK        -0.0862 
     13 C13        31.6025    1.1896   -3.4861 C.ar      12 UNK        -0.0733 
     14 C14        31.3396    0.2467   -2.4821 C.ar      12 UNK        -0.0832 
     15 C15        30.8083    2.4889   -3.6504 C.3       12 UNK         0.0240 
     16 S16        29.2622    2.6326   -2.6829 S.3       12 UNK        -0.2522 
     17 C17        28.1910    1.2600   -3.2459 C.3       12 UNK        -0.0967 
     18 CA         28.1688    0.9583   -4.7676 C.3       5 UNK         0.0660 
     19 N          27.5581   -0.3408   -5.0542 N.am      5 UNK        -0.4015 
     20 C          27.8145   -1.0583   -6.1565 C.2       4 UNK         0.4946 
     21 O          28.7385   -0.8001   -6.9275 O.2       4 UNK        -0.5353 
     22 CA         26.8931   -2.2485   -6.4820 C.3       4 UNK         0.0277 
     23 CB         27.6214   -3.5846   -6.2833 C.3       4 UNK        -0.1981 
     24 N          25.6439   -2.2490   -5.7173 N.am      4 UNK        -0.4209 
     25 C          24.6007   -1.4522   -5.9931 C.2       3 UNK         0.4942 
     26 O          24.5823   -0.6620   -6.9340 O.2       3 UNK        -0.5208 
     27 CA         23.4025   -1.4872   -5.0275 C.3       3 UNK         0.0250 
     28 CB         22.3939   -2.5617   -5.4620 C.3       3 UNK        -0.1990 
     29 N          23.7784   -1.7062   -3.6284 N.am      3 UNK        -0.4232 
     30 C          24.6382   -0.9516   -2.9301 C.2       2 UNK         0.4993 
     31 O          25.1896    0.0499   -3.3895 O.2       2 UNK        -0.5286 
     32 CA         24.9999   -1.4239   -1.5094 C.3       2 UNK         0.0209 
     33 CB         23.9434   -2.3627   -0.8837 C.3       2 UNK        -0.1931 
     34 N          26.3301   -2.0510   -1.4393 N.am      2 UNK        -0.4546 
     35 C          26.7941   -3.0593   -2.1962 C.2       1 UNK         0.5154 
     36 O          26.1853   -3.5337   -3.1602 O.2       1 UNK        -0.5181 
     37 C          27.4078    2.0394   -5.5560 C.2       5 UNK         0.5014 
     38 O          28.0261    2.8031   -6.3008 O.2       5 UNK        -0.5248 
     39 N          26.0728    2.0424   -5.3991 N.am      6 UNK        -0.4434 
     40 CA         25.1342    2.9804   -6.0204 C.3       6 UNK         0.0363 
     41 CB         23.7111    2.6832   -5.5238 C.3       6 UNK        -0.1936 
     42 C          25.1766    2.9892   -7.5573 C.2       6 UNK         0.5081 
     43 O          25.0701    4.0620   -8.1525 O.2       6 UNK        -0.5248 
     44 N          25.3792    1.8187   -8.1785 N.am      7 UNK        -0.4718 
     45 CA         25.5591    1.6260   -9.6234 C.3       7 UNK         0.0273 
     46 CB         25.3075    0.1447   -9.9634 C.3       7 UNK        -0.1935 
     47 C          26.9278    2.1212  -10.1439 C.2       7 UNK         0.5018 
     48 O          27.6059    1.3945  -10.8718 O.2       7 UNK        -0.5186 
     49 N          27.3003    3.3512   -9.7622 N.am      8 UNK        -0.4240 
     50 CA         28.5122    4.0913  -10.1286 C.3       8 UNK         0.0235 
     51 CB         28.4255    4.5504  -11.6001 C.3       8 UNK        -0.2000 
     52 C          29.8183    3.3354   -9.8120 C.2       8 UNK         0.4941 
     53 O          30.7347    3.3433  -10.6364 O.2       8 UNK        -0.5273 
     54 N          29.8767    2.7078   -8.6250 N.am      9 UNK        -0.4262 
     55 CA         30.9820    1.8852   -8.1180 C.3       9 UNK         0.0264 
     56 CB         32.2206    2.7557   -7.8140 C.3       9 UNK        -0.1955 
     57 C          31.2996    0.6934   -9.0430 C.2       9 UNK         0.5031 
     58 O          32.3734    0.6381   -9.6469 O.2       9 UNK        -0.5390 
     59 N          30.3493   -0.2453   -9.1293 N.am      10 UNK        -0.4204 
     60 CA         30.5326   -1.5532   -9.7629 C.3       10 UNK         0.0237 
     61 CB         29.1585   -2.1546  -10.1015 C.3       10 UNK        -0.1985 
     62 C          31.3431   -2.5059   -8.8639 C.2       10 UNK         0.4970 
     63 O          32.0548   -3.3636   -9.3864 O.2       10 UNK        -0.4914 
     64 N          31.2300   -2.3200   -7.5400 N.am      11 UNK        -0.4285 
     65 CA         32.0202   -2.9640   -6.4732 C.3       11 UNK         0.1007 
     66 C          31.7190   -4.4734   -6.2275 C.2       11 UNK         0.5703 
     67 N          30.8025   -5.1040   -6.9510 N.am      11 UNK        -0.7361 
     68 O          32.3129   -5.0836   -5.3422 O.2       11 UNK        -0.4986 
     69 C69        33.5535   -2.7088   -6.5943 C.3       12 UNK        -0.0947 
     70 S70        34.0096   -0.9633   -6.8793 S.3       12 UNK        -0.2240 
     71 C71        34.5842   -0.4364   -5.2387 C.3       12 UNK         0.0194 
     72 H72        28.1869   -8.0855   -1.2445 H         1 UNK         0.0906 
     73 H73        26.8023   -7.8512   -2.3153 H         1 UNK         0.0906 
     74 H74        28.4319   -7.4877   -2.8867 H         1 UNK         0.0906 
     75 H75        28.8299   -5.2859   -2.9479 H         1 UNK         0.3140 
     76 H76        28.3008   -3.5289   -0.7412 H         1 UNK         0.1085 
     77 H77        29.2449   -1.7691   -2.2328 H         1 UNK         0.0836 
     78 H78        29.2242   -2.8537   -3.5944 H         1 UNK         0.0836 
     79 H79        32.6873   -2.2792   -0.8413 H         1 UNK         0.0731 
     80 H80        31.1227   -1.5609   -0.5537 H         1 UNK         0.0731 
     81 H81        33.7091   -2.0668   -3.2284 H         1 UNK         0.1312 
     82 H82        32.8874    1.6783   -5.1372 H         1 UNK         0.1406 
     83 H83        30.5582    0.4213   -1.7580 H         1 UNK         0.1631 
     84 H84        30.5842    2.6596   -4.7042 H         1 UNK         0.0717 
     85 H85        31.4568    3.3134   -3.3511 H         1 UNK         0.0717 
     86 H86        28.4962    0.3657   -2.7065 H         1 UNK         0.0934 
     87 H87        27.1894    1.4758   -2.8734 H         1 UNK         0.0934 
     88 H88        29.1948    0.9248   -5.1333 H         1 UNK         0.0739 
     89 H89        26.7513   -0.5827   -4.4906 H         1 UNK         0.3093 
     90 H90        26.6424   -2.1669   -7.5418 H         1 UNK         0.0818 
     91 H91        27.8867   -3.7594   -5.2420 H         1 UNK         0.0819 
     92 H92        27.0074   -4.4221   -6.6145 H         1 UNK         0.0819 
     93 H93        28.5405   -3.6096   -6.8663 H         1 UNK         0.0819 
     94 H94        25.6151   -2.8372   -4.8871 H         1 UNK         0.3041 
     95 H95        22.9090   -0.5155   -5.0817 H         1 UNK         0.0784 
     96 H96        22.0818   -2.4076   -6.4961 H         1 UNK         0.0793 
     97 H97        22.8177   -3.5646   -5.3951 H         1 UNK         0.0793 
     98 H98        21.4941   -2.5344   -4.8470 H         1 UNK         0.0793 
     99 H99        23.4101   -2.5351   -3.1847 H         1 UNK         0.3024 
    100 H100       25.0415   -0.5201   -0.8987 H         1 UNK         0.1171 
    101 H101       24.1644   -2.5479    0.1676 H         1 UNK         0.0786 
    102 H102       22.9462   -1.9215   -0.9244 H         1 UNK         0.0786 
    103 H103       23.9018   -3.3326   -1.3810 H         1 UNK         0.0786 
    104 H104       26.9233   -1.7033   -0.6984 H         1 UNK         0.2977 
    105 H105       25.6680    1.3690   -4.7542 H         1 UNK         0.3127 
    106 H106       25.4117    3.9805   -5.6812 H         1 UNK         0.0770 
    107 H107       23.3701    1.7004   -5.8493 H         1 UNK         0.0814 
    108 H108       23.0029    3.4171   -5.9108 H         1 UNK         0.0814 
    109 H109       23.6516    2.7171   -4.4357 H         1 UNK         0.0814 
    110 H110       25.3752    0.9726   -7.6149 H         1 UNK         0.2983 
    111 H111       24.7991    2.2161  -10.1398 H         1 UNK         0.0947 
    112 H112       25.3716   -0.0310  -11.0380 H         1 UNK         0.0806 
    113 H113       24.3138   -0.1720   -9.6459 H         1 UNK         0.0806 
    114 H114       26.0371   -0.5064   -9.4801 H         1 UNK         0.0806 
    115 H115       26.6496    3.8417   -9.1528 H         1 UNK         0.3000 
    116 H116       28.5239    4.9857   -9.5039 H         1 UNK         0.0850 
    117 H117       29.2621    5.2007  -11.8590 H         1 UNK         0.0810 
    118 H118       27.5109    5.1130  -11.7875 H         1 UNK         0.0810 
    119 H119       28.4455    3.7037  -12.2874 H         1 UNK         0.0810 
    120 H120       29.0728    2.7769   -8.0055 H         1 UNK         0.3040 
    121 H121       30.6447    1.4608   -7.1709 H         1 UNK         0.0766 
    122 H122       31.9973    3.5148   -7.0647 H         1 UNK         0.0812 
    123 H123       32.5930    3.2619   -8.7048 H         1 UNK         0.0812 
    124 H124       33.0393    2.1460   -7.4305 H         1 UNK         0.0812 
    125 H125       29.5258   -0.1526   -8.5400 H         1 UNK         0.3205 
    126 H126       31.0858   -1.4166  -10.6945 H         1 UNK         0.0754 
    127 H127       29.2678   -3.1069  -10.6219 H         1 UNK         0.0769 
    128 H128       28.5876   -1.4917  -10.7526 H         1 UNK         0.0769 
    129 H129       28.5625   -2.3373   -9.2075 H         1 UNK         0.0769 
    130 H130       30.5508   -1.6376   -7.2217 H         1 UNK         0.2981 
    131 H131       31.6877   -2.4704   -5.5594 H         1 UNK         0.0541 
    132 H132       30.3466   -4.6338   -7.7147 H         1 UNK         0.3459 
    133 H133       30.6204   -6.0786   -6.7726 H         1 UNK         0.3459 
    134 H134       34.0684   -3.0628   -5.6998 H         1 UNK         0.0612 
    135 H135       33.9654   -3.2900   -7.4207 H         1 UNK         0.0612 
    136 H136       35.2886   -1.1681   -4.8403 H         1 UNK         0.0624 
    137 H137       35.1431    0.4940   -5.3486 H         1 UNK         0.0624 
@<TRIPOS>BOND
     1    1    2 1    
     2    1   72 1    
     3    1   73 1    
     4    1   74 1    
     5    2    3 2    
     6    2    4 am   BACKBONE|DICT|INTERRES
     7    4    5 1    
     8    4   75 1    
     9    5    6 1    
    10    5   35 1    
    11    5   76 1    
    12    6    7 1    
    13    6   77 1    
    14    6   78 1    
    15    7    8 1    
    16    8    9 1    
    17    8   79 1    
    18    8   80 1    
    19    9   10 ar   
    20    9   14 ar   
    21   10   11 ar   
    22   10   81 1    
    23   11   12 ar   
    24   11   71 1    
    25   12   13 ar   
    26   12   82 1    
    27   13   14 ar   
    28   13   15 1    
    29   14   83 1    
    30   15   16 1    
    31   15   84 1    
    32   15   85 1    
    33   16   17 1    
    34   17   18 1    
    35   17   86 1    
    36   17   87 1    
    37   18   19 1    
    38   18   37 1    
    39   18   88 1    
    40   19   20 am   BACKBONE|DICT|INTERRES
    41   19   89 1    
    42   20   21 2    
    43   20   22 1    
    44   22   23 1    
    45   22   24 1    
    46   22   90 1    
    47   23   91 1    
    48   23   92 1    
    49   23   93 1    
    50   24   25 am   BACKBONE|DICT|INTERRES
    51   24   94 1    
    52   25   26 2    
    53   25   27 1    
    54   27   28 1    
    55   27   29 1    
    56   27   95 1    
    57   28   96 1    
    58   28   97 1    
    59   28   98 1    
    60   29   30 am   BACKBONE|DICT|INTERRES
    61   29   99 1    
    62   30   31 2    
    63   30   32 1    
    64   32   33 1    
    65   32   34 1    
    66   32  100 1    
    67   33  101 1    
    68   33  102 1    
    69   33  103 1    
    70   34   35 am   BACKBONE|DICT|INTERRES
    71   34  104 1    
    72   35   36 2    
    73   37   38 2    
    74   37   39 am   BACKBONE|DICT|INTERRES
    75   39   40 1    
    76   39  105 1    
    77   40   41 1    
    78   40   42 1    
    79   40  106 1    
    80   41  107 1    
    81   41  108 1    
    82   41  109 1    
    83   42   43 2    
    84   42   44 am   BACKBONE|DICT|INTERRES
    85   44   45 1    
    86   44  110 1    
    87   45   46 1    
    88   45   47 1    
    89   45  111 1    
    90   46  112 1    
    91   46  113 1    
    92   46  114 1    
    93   47   48 2    
    94   47   49 am   BACKBONE|DICT|INTERRES
    95   49   50 1    
    96   49  115 1    
    97   50   51 1    
    98   50   52 1    
    99   50  116 1    
   100   51  117 1    
   101   51  118 1    
   102   51  119 1    
   103   52   53 2    
   104   52   54 am   BACKBONE|DICT|INTERRES
   105   54   55 1    
   106   54  120 1    
   107   55   56 1    
   108   55   57 1    
   109   55  121 1    
   110   56  122 1    
   111   56  123 1    
   112   56  124 1    
   113   57   58 2    
   114   57   59 am   BACKBONE|DICT|INTERRES
   115   59   60 1    
   116   59  125 1    
   117   60   61 1    
   118   60   62 1    
   119   60  126 1    
   120   61  127 1    
   121   61  128 1    
   122   61  129 1    
   123   62   63 2    
   124   62   64 am   BACKBONE|DICT|INTERRES
   125   64   65 1    
   126   64  130 1    
   127   65   66 1    
   128   65   69 1    
   129   65  131 1    
   130   66   67 am   BACKBONE|DICT|INTERRES
   131   66   68 2    
   132   67  132 1    
   133   67  133 1    
   134   69   70 1    
   135   69  134 1    
   136   69  135 1    
   137   70   71 1    
   138   71  136 1    
   139   71  137 1    
@<TRIPOS>SUBSTRUCTURE
     1 UNK         1 GROUP             0       ****    0 ROOT    
