@<TRIPOS>MOLECULE
3R137
137   139    1
SMALL
USER_CHARGES


@<TRIPOS>ATOM
      1 CA         27.9295   -3.3905    3.4290 C.3       0 UNK        -0.2020 
      2 C          28.2837   -2.2392    2.4994 C.2       0 UNK         0.4855 
      3 O          28.5785   -1.1401    2.9707 O.2       0 UNK        -0.5197 
      4 N          28.2666   -2.4854    1.1842 N.am      1 UNK        -0.4892 
      5 CA         28.4981   -1.4830    0.1396 C.3       1 UNK         0.0835 
      6 C6         29.0448   -2.1368   -1.1572 C.3       12 UNK        -0.0855 
      7 S7         27.9288   -3.3798   -1.9066 S.3       12 UNK        -0.2931 
      8 C8         29.0978   -4.6808   -2.4201 C.3       12 UNK         0.0378 
      9 C9         29.7224   -4.3696   -3.7733 C.ar      12 UNK        -0.0802 
     10 C10        30.8572   -3.5568   -3.8598 C.ar      12 UNK        -0.0944 
     11 C11        31.4285   -3.2705   -5.1023 C.ar      12 UNK        -0.0787 
     12 C12        30.8461   -3.7901   -6.2609 C.ar      12 UNK        -0.0862 
     13 C13        29.7096   -4.6023   -6.1970 C.ar      12 UNK        -0.0733 
     14 C14        29.1681   -4.9067   -4.9411 C.ar      12 UNK        -0.0832 
     15 C15        29.1401   -5.1426   -7.5123 C.3       12 UNK         0.0240 
     16 S16        27.4040   -5.7267   -7.5080 S.3       12 UNK        -0.2522 
     17 C17        26.4222   -4.3542   -6.8099 C.3       12 UNK        -0.0967 
     18 CA         26.2270   -3.1187   -7.7304 C.3       5 UNK         0.0660 
     19 N          24.9841   -2.4239   -7.3802 N.am      5 UNK        -0.4015 
     20 C          24.5124   -1.2871   -7.9130 C.2       4 UNK         0.4946 
     21 O          24.9996   -0.7257   -8.8928 O.2       4 UNK        -0.5353 
     22 CA         23.3306   -0.6301   -7.1720 C.3       4 UNK         0.0277 
     23 CB         21.9928   -1.1220   -7.7464 C.3       4 UNK        -0.1981 
     24 N          23.3588   -0.8541   -5.7183 N.am      4 UNK        -0.4209 
     25 C          24.3651   -0.4848   -4.9115 C.2       3 UNK         0.4942 
     26 O          25.3536    0.1406   -5.3021 O.2       3 UNK        -0.5208 
     27 CA         24.2947   -0.9878   -3.4602 C.3       3 UNK         0.0250 
     28 CB         24.5387   -2.5068   -3.4079 C.3       3 UNK        -0.1990 
     29 N          25.2955   -0.3362   -2.6152 N.am      3 UNK        -0.4232 
     30 C          25.1875    0.8953   -2.1014 C.2       2 UNK         0.4993 
     31 O          24.1882    1.6023   -2.2476 O.2       2 UNK        -0.5286 
     32 CA         26.3925    1.4443   -1.3033 C.3       2 UNK         0.0209 
     33 CB         25.9465    2.2680   -0.0756 C.3       2 UNK        -0.1931 
     34 N          27.4045    0.4447   -0.9147 N.am      2 UNK        -0.4546 
     35 C          27.2393   -0.6181   -0.1099 C.2       1 UNK         0.5154 
     36 O          26.1580   -0.9295    0.3976 O.2       1 UNK        -0.5181 
     37 C          27.4405   -2.1701   -7.6420 C.2       5 UNK         0.5014 
     38 O          28.1746   -2.0115   -8.6179 O.2       5 UNK        -0.5248 
     39 N          27.6038   -1.5374   -6.4720 N.am      6 UNK        -0.4434 
     40 CA         28.6940   -0.6155   -6.1698 C.3       6 UNK         0.0363 
     41 CB         28.7267   -0.3383   -4.6612 C.3       6 UNK        -0.1936 
     42 C          28.6030    0.6872   -6.9715 C.2       6 UNK         0.5081 
     43 O          29.6326    1.1868   -7.4220 O.2       6 UNK        -0.5248 
     44 N          27.3770    1.1890   -7.1747 N.am      7 UNK        -0.4718 
     45 CA         27.0882    2.3469   -8.0236 C.3       7 UNK         0.0273 
     46 CB         25.6117    2.7448   -7.8760 C.3       7 UNK        -0.1935 
     47 C          27.4479    2.1039   -9.5002 C.2       7 UNK         0.5018 
     48 O          28.0274    2.9899  -10.1286 O.2       7 UNK        -0.5186 
     49 N          27.1301    0.9065  -10.0154 N.am      8 UNK        -0.4240 
     50 CA         27.4959    0.4598  -11.3617 C.3       8 UNK         0.0235 
     51 CB         26.7111   -0.8123  -11.7208 C.3       8 UNK        -0.2000 
     52 C          29.0085    0.2316  -11.5197 C.2       8 UNK         0.4941 
     53 O          29.5718    0.6289  -12.5404 O.2       8 UNK        -0.5273 
     54 N          29.6397   -0.3890  -10.5118 N.am      9 UNK        -0.4262 
     55 CA         31.0866   -0.6232  -10.4575 C.3       9 UNK         0.0264 
     56 CB         31.3989   -1.6145   -9.3254 C.3       9 UNK        -0.1955 
     57 C          31.9131    0.6636  -10.2793 C.2       9 UNK         0.5031 
     58 O          33.0537    0.7095  -10.7423 O.2       9 UNK        -0.5390 
     59 N          31.3308    1.6640   -9.6020 N.am      10 UNK        -0.4204 
     60 CA         31.9155    2.9507   -9.2084 C.3       10 UNK         0.0237 
     61 CB         32.2887    3.8003  -10.4422 C.3       10 UNK        -0.1985 
     62 C          33.0699    2.7966   -8.1978 C.2       10 UNK         0.4970 
     63 O          34.0101    3.5940   -8.2129 O.2       10 UNK        -0.4914 
     64 N          32.9785    1.7738   -7.3388 N.am      11 UNK        -0.4285 
     65 CA         33.9255    1.5003   -6.2504 C.3       11 UNK         0.1007 
     66 C          33.7380    2.4448   -5.0292 C.2       11 UNK         0.5703 
     67 N          34.7306    2.5231   -4.1525 N.am      11 UNK        -0.7361 
     68 O          32.7081    3.0955   -4.8574 O.2       11 UNK        -0.4986 
     69 C69        33.9258   -0.0024   -5.8586 C.3       12 UNK        -0.0947 
     70 S70        32.2888   -0.6598   -5.3984 S.3       12 UNK        -0.2240 
     71 C71        32.6867   -2.4208   -5.2010 C.3       12 UNK         0.0194 
     72 H72        27.7083   -4.3054    2.8795 H         1 UNK         0.0906 
     73 H73        28.7578   -3.5944    4.1071 H         1 UNK         0.0906 
     74 H74        27.0548   -3.1342    4.0262 H         1 UNK         0.0906 
     75 H75        27.9745   -3.3916    0.8458 H         1 UNK         0.3140 
     76 H76        29.2684   -0.7983    0.5032 H         1 UNK         0.1085 
     77 H77        29.2845   -1.3780   -1.9012 H         1 UNK         0.0836 
     78 H78        29.9992   -2.6111   -0.9252 H         1 UNK         0.0836 
     79 H79        28.5588   -5.6281   -2.4706 H         1 UNK         0.0731 
     80 H80        29.8716   -4.8196   -1.6637 H         1 UNK         0.0731 
     81 H81        31.2993   -3.1497   -2.9612 H         1 UNK         0.1312 
     82 H82        31.2886   -3.5655   -7.2210 H         1 UNK         0.1406 
     83 H83        28.3082   -5.5569   -4.8642 H         1 UNK         0.1631 
     84 H84        29.7666   -5.9785   -7.8259 H         1 UNK         0.0717 
     85 H85        29.2431   -4.3908   -8.2949 H         1 UNK         0.0717 
     86 H86        25.4481   -4.8023   -6.6057 H         1 UNK         0.0934 
     87 H87        26.7978   -4.0725   -5.8264 H         1 UNK         0.0934 
     88 H88        26.1284   -3.4504   -8.7660 H         1 UNK         0.0739 
     89 H89        24.4759   -2.8020   -6.5959 H         1 UNK         0.3093 
     90 H90        23.3970    0.4465   -7.3376 H         1 UNK         0.0818 
     91 H91        21.1501   -0.5972   -7.2960 H         1 UNK         0.0819 
     92 H92        21.9432   -0.9454   -8.8220 H         1 UNK         0.0819 
     93 H93        21.8492   -2.1911   -7.5851 H         1 UNK         0.0819 
     94 H94        22.5772   -1.3576   -5.3224 H         1 UNK         0.3041 
     95 H95        23.3002   -0.7715   -3.0640 H         1 UNK         0.0784 
     96 H96        23.7716   -3.0551   -3.9558 H         1 UNK         0.0793 
     97 H97        24.5181   -2.8736   -2.3810 H         1 UNK         0.0793 
     98 H98        25.5051   -2.7780   -3.8347 H         1 UNK         0.0793 
     99 H99        26.1509   -0.8453   -2.4521 H         1 UNK         0.3024 
    100 H100       26.8965    2.1294   -1.9873 H         1 UNK         0.1171 
    101 H101       26.8024    2.6825    0.4570 H         1 UNK         0.0786 
    102 H102       25.3165    3.1077   -0.3719 H         1 UNK         0.0786 
    103 H103       25.3721    1.6658    0.6290 H         1 UNK         0.0786 
    104 H104       28.3276    0.6104   -1.2919 H         1 UNK         0.2977 
    105 H105       26.9046   -1.6475   -5.7535 H         1 UNK         0.3127 
    106 H106       29.6245   -1.1113   -6.4472 H         1 UNK         0.0770 
    107 H107       27.8162    0.1488   -4.3125 H         1 UNK         0.0814 
    108 H108       29.5643    0.3100   -4.4017 H         1 UNK         0.0814 
    109 H109       28.8500   -1.2691   -4.1105 H         1 UNK         0.0814 
    110 H110       26.5912    0.7401   -6.7115 H         1 UNK         0.2983 
    111 H111       27.7024    3.1761   -7.6656 H         1 UNK         0.0947 
    112 H112       25.3469    2.9164   -6.8324 H         1 UNK         0.0806 
    113 H113       24.9464    1.9770   -8.2699 H         1 UNK         0.0806 
    114 H114       25.4022    3.6657   -8.4216 H         1 UNK         0.0806 
    115 H115       26.5933    0.2548   -9.4484 H         1 UNK         0.3000 
    116 H116       27.2056    1.2445  -12.0637 H         1 UNK         0.0850 
    117 H117       26.9606   -1.1557  -12.7255 H         1 UNK         0.0810 
    118 H118       25.6361   -0.6331  -11.6960 H         1 UNK         0.0810 
    119 H119       26.9273   -1.6295  -11.0317 H         1 UNK         0.0810 
    120 H120       29.0850   -0.7633   -9.7445 H         1 UNK         0.3040 
    121 H121       31.3880   -1.0793  -11.4028 H         1 UNK         0.0766 
    122 H122       31.0986   -1.2215   -8.3539 H         1 UNK         0.0812 
    123 H123       32.4671   -1.8295   -9.2744 H         1 UNK         0.0812 
    124 H124       30.8823   -2.5622   -9.4780 H         1 UNK         0.0812 
    125 H125       30.4308    1.4675   -9.1713 H         1 UNK         0.3205 
    126 H126       31.1245    3.4807   -8.6755 H         1 UNK         0.0754 
    127 H127       32.5741    4.8112  -10.1486 H         1 UNK         0.0769 
    128 H128       31.4470    3.8888  -11.1294 H         1 UNK         0.0769 
    129 H129       33.1280    3.3731  -10.9916 H         1 UNK         0.0769 
    130 H130       32.1384    1.2117   -7.3415 H         1 UNK         0.2981 
    131 H131       34.9221    1.7172   -6.6402 H         1 UNK         0.0541 
    132 H132       35.5805    1.9953   -4.2762 H         1 UNK         0.3459 
    133 H133       34.6278    3.1253   -3.3507 H         1 UNK         0.3459 
    134 H134       34.6235   -0.1928   -5.0413 H         1 UNK         0.0612 
    135 H135       34.2939   -0.5867   -6.7035 H         1 UNK         0.0612 
    136 H136       33.3043   -2.5521   -4.3113 H         1 UNK         0.0624 
    137 H137       33.2892   -2.7542   -6.0474 H         1 UNK         0.0624 
@<TRIPOS>BOND
     1    1    2 1    
     2    1   72 1    
     3    1   73 1    
     4    1   74 1    
     5    2    3 2    
     6    2    4 am   BACKBONE|DICT|INTERRES
     7    4    5 1    
     8    4   75 1    
     9    5    6 1    
    10    5   35 1    
    11    5   76 1    
    12    6    7 1    
    13    6   77 1    
    14    6   78 1    
    15    7    8 1    
    16    8    9 1    
    17    8   79 1    
    18    8   80 1    
    19    9   10 ar   
    20    9   14 ar   
    21   10   11 ar   
    22   10   81 1    
    23   11   12 ar   
    24   11   71 1    
    25   12   13 ar   
    26   12   82 1    
    27   13   14 ar   
    28   13   15 1    
    29   14   83 1    
    30   15   16 1    
    31   15   84 1    
    32   15   85 1    
    33   16   17 1    
    34   17   18 1    
    35   17   86 1    
    36   17   87 1    
    37   18   19 1    
    38   18   37 1    
    39   18   88 1    
    40   19   20 am   BACKBONE|DICT|INTERRES
    41   19   89 1    
    42   20   21 2    
    43   20   22 1    
    44   22   23 1    
    45   22   24 1    
    46   22   90 1    
    47   23   91 1    
    48   23   92 1    
    49   23   93 1    
    50   24   25 am   BACKBONE|DICT|INTERRES
    51   24   94 1    
    52   25   26 2    
    53   25   27 1    
    54   27   28 1    
    55   27   29 1    
    56   27   95 1    
    57   28   96 1    
    58   28   97 1    
    59   28   98 1    
    60   29   30 am   BACKBONE|DICT|INTERRES
    61   29   99 1    
    62   30   31 2    
    63   30   32 1    
    64   32   33 1    
    65   32   34 1    
    66   32  100 1    
    67   33  101 1    
    68   33  102 1    
    69   33  103 1    
    70   34   35 am   BACKBONE|DICT|INTERRES
    71   34  104 1    
    72   35   36 2    
    73   37   38 2    
    74   37   39 am   BACKBONE|DICT|INTERRES
    75   39   40 1    
    76   39  105 1    
    77   40   41 1    
    78   40   42 1    
    79   40  106 1    
    80   41  107 1    
    81   41  108 1    
    82   41  109 1    
    83   42   43 2    
    84   42   44 am   BACKBONE|DICT|INTERRES
    85   44   45 1    
    86   44  110 1    
    87   45   46 1    
    88   45   47 1    
    89   45  111 1    
    90   46  112 1    
    91   46  113 1    
    92   46  114 1    
    93   47   48 2    
    94   47   49 am   BACKBONE|DICT|INTERRES
    95   49   50 1    
    96   49  115 1    
    97   50   51 1    
    98   50   52 1    
    99   50  116 1    
   100   51  117 1    
   101   51  118 1    
   102   51  119 1    
   103   52   53 2    
   104   52   54 am   BACKBONE|DICT|INTERRES
   105   54   55 1    
   106   54  120 1    
   107   55   56 1    
   108   55   57 1    
   109   55  121 1    
   110   56  122 1    
   111   56  123 1    
   112   56  124 1    
   113   57   58 2    
   114   57   59 am   BACKBONE|DICT|INTERRES
   115   59   60 1    
   116   59  125 1    
   117   60   61 1    
   118   60   62 1    
   119   60  126 1    
   120   61  127 1    
   121   61  128 1    
   122   61  129 1    
   123   62   63 2    
   124   62   64 am   BACKBONE|DICT|INTERRES
   125   64   65 1    
   126   64  130 1    
   127   65   66 1    
   128   65   69 1    
   129   65  131 1    
   130   66   67 am   BACKBONE|DICT|INTERRES
   131   66   68 2    
   132   67  132 1    
   133   67  133 1    
   134   69   70 1    
   135   69  134 1    
   136   69  135 1    
   137   70   71 1    
   138   71  136 1    
   139   71  137 1    
@<TRIPOS>SUBSTRUCTURE
     1 UNK         1 GROUP             0       ****    0 ROOT    
