@<TRIPOS>MOLECULE
3R137
137   139    1
SMALL
USER_CHARGES


@<TRIPOS>ATOM
      1 CA         26.8934   -6.8377   -3.5992 C.3       0 UNK        -0.2020 
      2 C          26.8332   -6.3523   -2.1602 C.2       0 UNK         0.4855 
      3 O          26.5387   -7.1406   -1.2610 O.2       0 UNK        -0.5197 
      4 N          27.0953   -5.0589   -1.9375 N.am      1 UNK        -0.4892 
      5 CA         26.9741   -4.4097   -0.6282 C.3       1 UNK         0.0835 
      6 C6         28.1002   -4.7978    0.3771 C.3       12 UNK        -0.0855 
      7 S7         29.6798   -3.8790    0.2931 S.3       12 UNK        -0.2931 
      8 C8         30.5494   -4.6638   -1.1054 C.3       12 UNK         0.0378 
      9 C9         30.5404   -3.7843   -2.3514 C.ar      12 UNK        -0.0802 
     10 C10        31.0266   -2.4727   -2.2888 C.ar      12 UNK        -0.0944 
     11 C11        31.0312   -1.6535   -3.4211 C.ar      12 UNK        -0.0787 
     12 C12        30.5449   -2.1637   -4.6282 C.ar      12 UNK        -0.0862 
     13 C13        30.0898   -3.4821   -4.7181 C.ar      12 UNK        -0.0733 
     14 C14        30.0884   -4.2885   -3.5757 C.ar      12 UNK        -0.0832 
     15 C15        29.6509   -4.0362   -6.0686 C.3       12 UNK         0.0240 
     16 S16        27.8958   -4.5222   -6.1436 S.3       12 UNK        -0.2522 
     17 C17        27.0049   -3.0672   -5.5045 C.3       12 UNK        -0.0967 
     18 CA         26.6580   -2.0102   -6.5860 C.3       5 UNK         0.0660 
     19 N          25.3717   -1.3638   -6.3125 N.am      5 UNK        -0.4015 
     20 C          24.7232   -0.5538   -7.1632 C.2       4 UNK         0.4946 
     21 O          25.1147   -0.3054   -8.3029 O.2       4 UNK        -0.5353 
     22 CA         23.4548    0.1447   -6.6393 C.3       4 UNK         0.0277 
     23 CB         22.2120   -0.7134   -6.9220 C.3       4 UNK        -0.1981 
     24 N          23.5170    0.4658   -5.2096 N.am      4 UNK        -0.4209 
     25 C          24.4300    1.2738   -4.6526 C.2       3 UNK         0.4942 
     26 O          25.2811    1.8799   -5.3045 O.2       3 UNK        -0.5208 
     27 CA         24.4504    1.3822   -3.1149 C.3       3 UNK         0.0250 
     28 CB         23.1963    0.8005   -2.4226 C.3       3 UNK        -0.1990 
     29 N          25.6714    0.7876   -2.5501 N.am      3 UNK        -0.4232 
     30 C          26.1040   -0.4726   -2.7159 C.2       2 UNK         0.4993 
     31 O          25.5078   -1.3103   -3.3971 O.2       2 UNK        -0.5286 
     32 CA         27.4594   -0.8538   -2.0825 C.3       2 UNK         0.0209 
     33 CB         27.8915    0.0552   -0.9099 C.3       2 UNK        -0.1931 
     34 N          27.5208   -2.2677   -1.6935 N.am      2 UNK        -0.4546 
     35 C          26.7448   -2.8962   -0.7947 C.2       1 UNK         0.5154 
     36 O          25.8609   -2.3454   -0.1362 O.2       1 UNK        -0.5181 
     37 C          27.7841   -0.9671   -6.7205 C.2       5 UNK         0.5014 
     38 O          28.6251   -1.0895   -7.6107 O.2       5 UNK        -0.5248 
     39 N          27.7649    0.0559   -5.8502 N.am      6 UNK        -0.4434 
     40 CA         28.7289    1.1572   -5.8458 C.3       6 UNK         0.0363 
     41 CB         28.5672    2.0150   -4.5796 C.3       6 UNK        -0.1936 
     42 C          28.6320    2.0173   -7.1097 C.2       6 UNK         0.5081 
     43 O          29.6680    2.3900   -7.6608 O.2       6 UNK        -0.5248 
     44 N          27.3974    2.2751   -7.5589 N.am      7 UNK        -0.4718 
     45 CA         27.1026    2.9493   -8.8212 C.3       7 UNK         0.0273 
     46 CB         25.6077    3.3029   -8.8786 C.3       7 UNK        -0.1935 
     47 C          27.5205    2.1136  -10.0429 C.2       7 UNK         0.5018 
     48 O          28.1698    2.6495  -10.9406 O.2       7 UNK        -0.5186 
     49 N          27.1554    0.8227  -10.0510 N.am      8 UNK        -0.4240 
     50 CA         27.4313   -0.1136  -11.1442 C.3       8 UNK         0.0235 
     51 CB         26.6599   -1.4234  -10.9162 C.3       8 UNK        -0.2000 
     52 C          28.9266   -0.4003  -11.3507 C.2       8 UNK         0.4941 
     53 O          29.3926   -0.3682  -12.4903 O.2       8 UNK        -0.5273 
     54 N          29.6508   -0.6776  -10.2580 N.am      9 UNK        -0.4262 
     55 CA         31.0782   -1.0116  -10.2893 C.3       9 UNK         0.0264 
     56 CB         31.4170   -1.8698   -9.0582 C.3       9 UNK        -0.1955 
     57 C          32.0021    0.2174  -10.3513 C.2       9 UNK         0.5031 
     58 O          33.2044    0.0384  -10.5494 O.2       9 UNK        -0.5390 
     59 N          31.4508    1.4227  -10.1325 N.am      10 UNK        -0.4204 
     60 CA         32.1604    2.6942   -9.9174 C.3       10 UNK         0.0237 
     61 CB         32.9295    3.1365  -11.1807 C.3       10 UNK        -0.1985 
     62 C          33.0387    2.6719   -8.6460 C.2       10 UNK         0.4970 
     63 O          34.0627    3.3555   -8.5810 O.2       10 UNK        -0.4914 
     64 N          32.6035    1.8798   -7.6595 N.am      11 UNK        -0.4285 
     65 CA         33.1842    1.7511   -6.3185 C.3       11 UNK         0.1007 
     66 C          32.7506    2.9176   -5.3799 C.2       11 UNK         0.5703 
     67 N          31.6501    3.6104   -5.6547 N.am      11 UNK        -0.7361 
     68 O          33.4452    3.2313   -4.4169 O.2       11 UNK        -0.4986 
     69 C69        32.8819    0.3211   -5.7776 C.3       12 UNK        -0.0947 
     70 S70        33.2274   -0.0289   -4.0159 S.3       12 UNK        -0.2240 
     71 C71        31.5501   -0.2216   -3.3239 C.3       12 UNK         0.0194 
     72 H72        26.3033   -6.1920   -4.2484 H         1 UNK         0.0906 
     73 H73        27.9210   -6.8544   -3.9593 H         1 UNK         0.0906 
     74 H74        26.4916   -7.8474   -3.6819 H         1 UNK         0.0906 
     75 H75        27.2657   -4.4437   -2.7198 H         1 UNK         0.3140 
     76 H76        26.0401   -4.7823   -0.1993 H         1 UNK         0.1085 
     77 H77        27.7186   -4.6418    1.3876 H         1 UNK         0.0836 
     78 H78        28.3125   -5.8665    0.3270 H         1 UNK         0.0836 
     79 H79        31.5857   -4.8418   -0.8153 H         1 UNK         0.0731 
     80 H80        30.1161   -5.6438   -1.3103 H         1 UNK         0.0731 
     81 H81        31.3986   -2.0880   -1.3488 H         1 UNK         0.1312 
     82 H82        30.5370   -1.5476   -5.5131 H         1 UNK         0.1406 
     83 H83        29.7491   -5.3124   -3.6477 H         1 UNK         0.1631 
     84 H84        30.2612   -4.9087   -6.3047 H         1 UNK         0.0717 
     85 H85        29.8444   -3.3164   -6.8632 H         1 UNK         0.0717 
     86 H86        27.5373   -2.6332   -4.6580 H         1 UNK         0.0934 
     87 H87        26.0837   -3.4660   -5.0760 H         1 UNK         0.0934 
     88 H88        26.5563   -2.5125   -7.5504 H         1 UNK         0.0739 
     89 H89        25.0203   -1.4616   -5.3648 H         1 UNK         0.3093 
     90 H90        23.3528    1.0855   -7.1845 H         1 UNK         0.0818 
     91 H91        21.2968   -0.1931   -6.6389 H         1 UNK         0.0819 
     92 H92        22.1338   -0.9463   -7.9851 H         1 UNK         0.0819 
     93 H93        22.2419   -1.6608   -6.3823 H         1 UNK         0.0819 
     94 H94        22.8669   -0.0121   -4.6022 H         1 UNK         0.3041 
     95 H95        24.4874    2.4490   -2.8891 H         1 UNK         0.0784 
     96 H96        22.2836    1.2616   -2.8028 H         1 UNK         0.0793 
     97 H97        23.1083   -0.2784   -2.5557 H         1 UNK         0.0793 
     98 H98        23.2235    0.9922   -1.3499 H         1 UNK         0.0793 
     99 H99        26.2397    1.4135   -1.9970 H         1 UNK         0.3024 
    100 H100       28.1998   -0.7413   -2.8748 H         1 UNK         0.1171 
    101 H101       28.8317   -0.2888   -0.4775 H         1 UNK         0.0786 
    102 H102       27.1489    0.0703   -0.1111 H         1 UNK         0.0786 
    103 H103       28.0542    1.0837   -1.2331 H         1 UNK         0.0786 
    104 H104       28.2699   -2.7984   -2.1156 H         1 UNK         0.2977 
    105 H105       26.9744    0.1423   -5.2283 H         1 UNK         0.3127 
    106 H106       29.7240    0.7186   -5.8340 H         1 UNK         0.0770 
    107 H107       27.6032    2.5199   -4.5418 H         1 UNK         0.0814 
    108 H108       29.3284    2.7928   -4.5364 H         1 UNK         0.0814 
    109 H109       28.6716    1.4231   -3.6733 H         1 UNK         0.0814 
    110 H110       26.6090    1.9641   -7.0025 H         1 UNK         0.2983 
    111 H111       27.6743    3.8799   -8.8451 H         1 UNK         0.0947 
    112 H112       25.3682    3.8337   -9.8008 H         1 UNK         0.0806 
    113 H113       25.3222    3.9491   -8.0485 H         1 UNK         0.0806 
    114 H114       24.9775    2.4140   -8.8408 H         1 UNK         0.0806 
    115 H115       26.5816    0.4704   -9.2887 H         1 UNK         0.3000 
    116 H116       27.0565    0.3401  -12.0641 H         1 UNK         0.0850 
    117 H117       26.8456   -2.1336  -11.7230 H         1 UNK         0.0810 
    118 H118       25.5846   -1.2482  -10.8809 H         1 UNK         0.0810 
    119 H119       26.9505   -1.9052   -9.9820 H         1 UNK         0.0810 
    120 H120       29.1911   -0.7214   -9.3491 H         1 UNK         0.3040 
    121 H121       31.2806   -1.6115  -11.1793 H         1 UNK         0.0766 
    122 H122       32.4612   -2.1852   -9.0733 H         1 UNK         0.0812 
    123 H123       31.2560   -1.3246   -8.1279 H         1 UNK         0.0812 
    124 H124       30.8083   -2.7734   -9.0295 H         1 UNK         0.0812 
    125 H125       30.4508    1.4571   -9.9837 H         1 UNK         0.3205 
    126 H126       31.3850    3.4387   -9.7299 H         1 UNK         0.0754 
    127 H127       33.3181    4.1491  -11.0658 H         1 UNK         0.0769 
    128 H128       32.2826    3.1364  -12.0581 H         1 UNK         0.0769 
    129 H129       33.7795    2.4862  -11.3893 H         1 UNK         0.0769 
    130 H130       31.7004    1.4445   -7.7921 H         1 UNK         0.2981 
    131 H131       34.2684    1.8343   -6.4138 H         1 UNK         0.0541 
    132 H132       31.0739    3.3680   -6.4504 H         1 UNK         0.3459 
    133 H133       31.3963    4.3834   -5.0613 H         1 UNK         0.3459 
    134 H134       31.8405    0.0865   -5.9731 H         1 UNK         0.0612 
    135 H135       33.4471   -0.4045   -6.3644 H         1 UNK         0.0612 
    136 H136       31.5783    0.0912   -2.2793 H         1 UNK         0.0624 
    137 H137       30.8658    0.4659   -3.8164 H         1 UNK         0.0624 
@<TRIPOS>BOND
     1    1    2 1    
     2    1   72 1    
     3    1   73 1    
     4    1   74 1    
     5    2    3 2    
     6    2    4 am   BACKBONE|DICT|INTERRES
     7    4    5 1    
     8    4   75 1    
     9    5    6 1    
    10    5   35 1    
    11    5   76 1    
    12    6    7 1    
    13    6   77 1    
    14    6   78 1    
    15    7    8 1    
    16    8    9 1    
    17    8   79 1    
    18    8   80 1    
    19    9   10 ar   
    20    9   14 ar   
    21   10   11 ar   
    22   10   81 1    
    23   11   12 ar   
    24   11   71 1    
    25   12   13 ar   
    26   12   82 1    
    27   13   14 ar   
    28   13   15 1    
    29   14   83 1    
    30   15   16 1    
    31   15   84 1    
    32   15   85 1    
    33   16   17 1    
    34   17   18 1    
    35   17   86 1    
    36   17   87 1    
    37   18   19 1    
    38   18   37 1    
    39   18   88 1    
    40   19   20 am   BACKBONE|DICT|INTERRES
    41   19   89 1    
    42   20   21 2    
    43   20   22 1    
    44   22   23 1    
    45   22   24 1    
    46   22   90 1    
    47   23   91 1    
    48   23   92 1    
    49   23   93 1    
    50   24   25 am   BACKBONE|DICT|INTERRES
    51   24   94 1    
    52   25   26 2    
    53   25   27 1    
    54   27   28 1    
    55   27   29 1    
    56   27   95 1    
    57   28   96 1    
    58   28   97 1    
    59   28   98 1    
    60   29   30 am   BACKBONE|DICT|INTERRES
    61   29   99 1    
    62   30   31 2    
    63   30   32 1    
    64   32   33 1    
    65   32   34 1    
    66   32  100 1    
    67   33  101 1    
    68   33  102 1    
    69   33  103 1    
    70   34   35 am   BACKBONE|DICT|INTERRES
    71   34  104 1    
    72   35   36 2    
    73   37   38 2    
    74   37   39 am   BACKBONE|DICT|INTERRES
    75   39   40 1    
    76   39  105 1    
    77   40   41 1    
    78   40   42 1    
    79   40  106 1    
    80   41  107 1    
    81   41  108 1    
    82   41  109 1    
    83   42   43 2    
    84   42   44 am   BACKBONE|DICT|INTERRES
    85   44   45 1    
    86   44  110 1    
    87   45   46 1    
    88   45   47 1    
    89   45  111 1    
    90   46  112 1    
    91   46  113 1    
    92   46  114 1    
    93   47   48 2    
    94   47   49 am   BACKBONE|DICT|INTERRES
    95   49   50 1    
    96   49  115 1    
    97   50   51 1    
    98   50   52 1    
    99   50  116 1    
   100   51  117 1    
   101   51  118 1    
   102   51  119 1    
   103   52   53 2    
   104   52   54 am   BACKBONE|DICT|INTERRES
   105   54   55 1    
   106   54  120 1    
   107   55   56 1    
   108   55   57 1    
   109   55  121 1    
   110   56  122 1    
   111   56  123 1    
   112   56  124 1    
   113   57   58 2    
   114   57   59 am   BACKBONE|DICT|INTERRES
   115   59   60 1    
   116   59  125 1    
   117   60   61 1    
   118   60   62 1    
   119   60  126 1    
   120   61  127 1    
   121   61  128 1    
   122   61  129 1    
   123   62   63 2    
   124   62   64 am   BACKBONE|DICT|INTERRES
   125   64   65 1    
   126   64  130 1    
   127   65   66 1    
   128   65   69 1    
   129   65  131 1    
   130   66   67 am   BACKBONE|DICT|INTERRES
   131   66   68 2    
   132   67  132 1    
   133   67  133 1    
   134   69   70 1    
   135   69  134 1    
   136   69  135 1    
   137   70   71 1    
   138   71  136 1    
   139   71  137 1    
@<TRIPOS>SUBSTRUCTURE
     1 UNK         1 GROUP             0       ****    0 ROOT    
