@<TRIPOS>MOLECULE
3R137
137   139    1
SMALL
USER_CHARGES


@<TRIPOS>ATOM
      1 CA         28.2136   -2.9428    3.3300 C.3       0 UNK        -0.2020 
      2 C          28.6476   -2.4816    1.9469 C.2       0 UNK         0.4855 
      3 O          29.5250   -1.6256    1.8341 O.2       0 UNK        -0.5197 
      4 N          28.0410   -3.0431    0.8929 N.am      1 UNK        -0.4892 
      5 CA         28.3413   -2.7318   -0.5118 C.3       1 UNK         0.0835 
      6 C6         27.7271   -3.7758   -1.4811 C.3       12 UNK        -0.0855 
      7 S7         28.1224   -5.5153   -1.0916 S.3       12 UNK        -0.2931 
      8 C8         29.9226   -5.6012   -1.3754 C.3       12 UNK         0.0378 
      9 C9         30.3613   -5.0462   -2.7263 C.ar      12 UNK        -0.0802 
     10 C10        31.3900   -4.1008   -2.7835 C.ar      12 UNK        -0.0944 
     11 C11        31.8295   -3.5854   -4.0061 C.ar      12 UNK        -0.0787 
     12 C12        31.2187   -4.0351   -5.1842 C.ar      12 UNK        -0.0862 
     13 C13        30.1662   -4.9541   -5.1434 C.ar      12 UNK        -0.0733 
     14 C14        29.7547   -5.4728   -3.9130 C.ar      12 UNK        -0.0832 
     15 C15        29.4644   -5.3654   -6.4322 C.3       12 UNK         0.0240 
     16 S16        27.9344   -4.4088   -6.7134 S.3       12 UNK        -0.2522 
     17 C17        28.5582   -2.6951   -6.6547 C.3       12 UNK        -0.0967 
     18 CA         27.7588   -1.6881   -7.5138 C.3       5 UNK         0.0660 
     19 N          26.3184   -1.7182   -7.2262 N.am      5 UNK        -0.4015 
     20 C          25.3914   -0.9122   -7.7655 C.2       4 UNK         0.4946 
     21 O          25.6355   -0.0986   -8.6562 O.2       4 UNK        -0.5353 
     22 CA         23.9664   -0.9546   -7.1842 C.3       4 UNK         0.0277 
     23 CB         23.0620   -1.8193   -8.0765 C.3       4 UNK        -0.1981 
     24 N          23.8397   -1.3999   -5.7883 N.am      4 UNK        -0.4209 
     25 C          24.5445   -0.9697   -4.7299 C.2       3 UNK         0.4942 
     26 O          25.4970   -0.1902   -4.8126 O.2       3 UNK        -0.5208 
     27 CA         24.1244   -1.5531   -3.3659 C.3       3 UNK         0.0250 
     28 CB         24.1693   -3.0941   -3.3802 C.3       3 UNK        -0.1990 
     29 N          24.9721   -1.0899   -2.2678 N.am      3 UNK        -0.4232 
     30 C          25.0191    0.1426   -1.7433 C.2       2 UNK         0.4993 
     31 O          24.2613    1.0559   -2.0745 O.2       2 UNK        -0.5286 
     32 CA         26.0710    0.3898   -0.6381 C.3       2 UNK         0.0209 
     33 CB         25.4191    0.9723    0.6287 C.3       2 UNK        -0.1931 
     34 N          26.8089   -0.8257   -0.2685 N.am      2 UNK        -0.4546 
     35 C          27.8655   -1.3232   -0.9286 C.2       1 UNK         0.5154 
     36 O          28.4142   -0.7475   -1.8674 O.2       1 UNK        -0.5181 
     37 C          28.3845   -0.2868   -7.3333 C.2       5 UNK         0.5014 
     38 O          29.2981    0.0658   -8.0814 O.2       5 UNK        -0.5248 
     39 N          27.8700    0.4977   -6.3743 N.am      6 UNK        -0.4434 
     40 CA         28.2875    1.8758   -6.1096 C.3       6 UNK         0.0363 
     41 CB         27.6834    2.3359   -4.7733 C.3       6 UNK        -0.1936 
     42 C          27.9335    2.8652   -7.2363 C.2       6 UNK         0.5081 
     43 O          28.5214    3.9454   -7.2802 O.2       6 UNK        -0.5248 
     44 N          27.0008    2.4922   -8.1230 N.am      7 UNK        -0.4718 
     45 CA         26.6140    3.2629   -9.3039 C.3       7 UNK         0.0273 
     46 CB         25.0843    3.4207   -9.3289 C.3       7 UNK        -0.1935 
     47 C          27.1083    2.5832  -10.5886 C.2       7 UNK         0.5018 
     48 O          27.6779    3.2589  -11.4450 O.2       7 UNK        -0.5186 
     49 N          26.8785    1.2673  -10.7058 N.am      8 UNK        -0.4240 
     50 CA         27.1600    0.4698  -11.9012 C.3       8 UNK         0.0235 
     51 CB         26.4333   -0.8817  -11.7975 C.3       8 UNK        -0.2000 
     52 C          28.6587    0.2592  -12.1588 C.2       8 UNK         0.4941 
     53 O          29.0983    0.4079  -13.2996 O.2       8 UNK        -0.5273 
     54 N          29.4093   -0.0836  -11.1038 N.am      9 UNK        -0.4262 
     55 CA         30.8566   -0.3138  -11.1574 C.3       9 UNK         0.0264 
     56 CB         31.1779   -1.6242  -10.4153 C.3       9 UNK        -0.1955 
     57 C          31.6550    0.8570  -10.5589 C.2       9 UNK         0.5031 
     58 O          32.8820    0.8537  -10.6662 O.2       9 UNK        -0.5390 
     59 N          30.9583    1.8122   -9.9212 N.am      10 UNK        -0.4204 
     60 CA         31.4885    2.9270   -9.1261 C.3       10 UNK         0.0237 
     61 CB         32.2448    3.9350  -10.0181 C.3       10 UNK        -0.1985 
     62 C          32.3151    2.4466   -7.9144 C.2       10 UNK         0.4970 
     63 O          33.3007    3.0910   -7.5499 O.2       10 UNK        -0.4914 
     64 N          31.9173    1.3048   -7.3357 N.am      11 UNK        -0.4285 
     65 CA         32.6179    0.6370   -6.2321 C.3       11 UNK         0.1007 
     66 C          32.5293    1.4051   -4.8834 C.2       11 UNK         0.5703 
     67 N          33.4944    1.2086   -3.9955 N.am      11 UNK        -0.7361 
     68 O          31.5885    2.1518   -4.6227 O.2       11 UNK        -0.4986 
     69 C69        32.1588   -0.8405   -6.1035 C.3       12 UNK        -0.0947 
     70 S70        33.5279   -1.9424   -5.6117 S.3       12 UNK        -0.2240 
     71 C71        32.9572   -2.5485   -3.9859 C.3       12 UNK         0.0194 
     72 H72        27.8271   -2.0999    3.9024 H         1 UNK         0.0906 
     73 H73        27.4360   -3.7049    3.2813 H         1 UNK         0.0906 
     74 H74        29.0632   -3.3602    3.8696 H         1 UNK         0.0906 
     75 H75        27.3555   -3.7713    1.0406 H         1 UNK         0.3140 
     76 H76        29.4266   -2.7452   -0.6338 H         1 UNK         0.1085 
     77 H77        26.6383   -3.7016   -1.4762 H         1 UNK         0.0836 
     78 H78        28.0311   -3.5699   -2.5097 H         1 UNK         0.0836 
     79 H79        30.4232   -5.0770   -0.5597 H         1 UNK         0.0731 
     80 H80        30.2383   -6.6429   -1.3056 H         1 UNK         0.0731 
     81 H81        31.8589   -3.7641   -1.8686 H         1 UNK         0.1312 
     82 H82        31.5391   -3.6613   -6.1448 H         1 UNK         0.1406 
     83 H83        28.9466   -6.1910   -3.8762 H         1 UNK         0.1631 
     84 H84        29.2168   -6.4272   -6.3951 H         1 UNK         0.0717 
     85 H85        30.1294   -5.2381   -7.2879 H         1 UNK         0.0717 
     86 H86        28.5790   -2.3871   -5.6064 H         1 UNK         0.0934 
     87 H87        29.5945   -2.6971   -6.9952 H         1 UNK         0.0934 
     88 H88        27.8764   -1.9626   -8.5639 H         1 UNK         0.0739 
     89 H89        26.0283   -2.3623   -6.5057 H         1 UNK         0.3093 
     90 H90        23.5919    0.0704   -7.2167 H         1 UNK         0.0818 
     91 H91        22.0171   -1.7478   -7.7741 H         1 UNK         0.0819 
     92 H92        23.1159   -1.4972   -9.1179 H         1 UNK         0.0819 
     93 H93        23.3512   -2.8706   -8.0458 H         1 UNK         0.0819 
     94 H94        23.0904   -2.0535   -5.6114 H         1 UNK         0.3041 
     95 H95        23.1016   -1.2281   -3.1645 H         1 UNK         0.0784 
     96 H96        23.4551   -3.5128   -4.0899 H         1 UNK         0.0793 
     97 H97        25.1575   -3.4676   -3.6537 H         1 UNK         0.0793 
     98 H98        23.9157   -3.5073   -2.4035 H         1 UNK         0.0793 
     99 H99        25.6549   -1.7481   -1.9312 H         1 UNK         0.3024 
    100 H100       26.7751    1.1267   -1.0318 H         1 UNK         0.1171 
    101 H101       24.9110    1.9130    0.4122 H         1 UNK         0.0786 
    102 H102       26.1634    1.1801    1.3978 H         1 UNK         0.0786 
    103 H103       24.6789    0.2918    1.0514 H         1 UNK         0.0786 
    104 H104       26.4352   -1.3671    0.4986 H         1 UNK         0.2977 
    105 H105       27.0923    0.1517   -5.8144 H         1 UNK         0.3127 
    106 H106       29.3734    1.8794   -6.0108 H         1 UNK         0.0770 
    107 H107       26.5935    2.3607   -4.8108 H         1 UNK         0.0814 
    108 H108       28.0261    3.3387   -4.5147 H         1 UNK         0.0814 
    109 H109       27.9754    1.6735   -3.9577 H         1 UNK         0.0814 
    110 H110       26.5758    1.5763   -8.0258 H         1 UNK         0.2983 
    111 H111       27.0534    4.2625   -9.2716 H         1 UNK         0.0947 
    112 H112       24.7638    3.9818  -10.2078 H         1 UNK         0.0806 
    113 H113       24.7307    3.9634   -8.4521 H         1 UNK         0.0806 
    114 H114       24.5740    2.4568   -9.3518 H         1 UNK         0.0806 
    115 H115       26.3886    0.7864   -9.9508 H         1 UNK         0.3000 
    116 H116       26.7514    1.0057  -12.7609 H         1 UNK         0.0850 
    117 H117       26.6031   -1.4868  -12.6892 H         1 UNK         0.0810 
    118 H118       25.3562   -0.7448  -11.6991 H         1 UNK         0.0810 
    119 H119       26.7738   -1.4615  -10.9388 H         1 UNK         0.0810 
    120 H120       28.9767   -0.1715  -10.1920 H         1 UNK         0.3040 
    121 H121       31.1864   -0.4274  -12.1922 H         1 UNK         0.0766 
    122 H122       32.2445   -1.8481  -10.4611 H         1 UNK         0.0812 
    123 H123       30.6521   -2.4692  -10.8597 H         1 UNK         0.0812 
    124 H124       30.9029   -1.5763   -9.3621 H         1 UNK         0.0812 
    125 H125       29.9568    1.6907   -9.8810 H         1 UNK         0.3205 
    126 H126       30.6243    3.4466   -8.7149 H         1 UNK         0.0754 
    127 H127       32.5134    4.8297   -9.4551 H         1 UNK         0.0769 
    128 H128       31.6314    4.2558  -10.8601 H         1 UNK         0.0769 
    129 H129       33.1680    3.5130  -10.4162 H         1 UNK         0.0769 
    130 H130       31.0709    0.8554   -7.6691 H         1 UNK         0.2981 
    131 H131       33.6705    0.6396   -6.5240 H         1 UNK         0.0541 
    132 H132       34.2611    0.5851   -4.1938 H         1 UNK         0.3459 
    133 H133       33.4528    1.6907   -3.1116 H         1 UNK         0.3459 
    134 H134       31.8081   -1.2138   -7.0668 H         1 UNK         0.0612 
    135 H135       31.3096   -0.9423   -5.4246 H         1 UNK         0.0612 
    136 H136       33.8171   -2.9875   -3.4780 H         1 UNK         0.0624 
    137 H137       32.6470   -1.6938   -3.3828 H         1 UNK         0.0624 
@<TRIPOS>BOND
     1    1    2 1    
     2    1   72 1    
     3    1   73 1    
     4    1   74 1    
     5    2    3 2    
     6    2    4 am   BACKBONE|DICT|INTERRES
     7    4    5 1    
     8    4   75 1    
     9    5    6 1    
    10    5   35 1    
    11    5   76 1    
    12    6    7 1    
    13    6   77 1    
    14    6   78 1    
    15    7    8 1    
    16    8    9 1    
    17    8   79 1    
    18    8   80 1    
    19    9   10 ar   
    20    9   14 ar   
    21   10   11 ar   
    22   10   81 1    
    23   11   12 ar   
    24   11   71 1    
    25   12   13 ar   
    26   12   82 1    
    27   13   14 ar   
    28   13   15 1    
    29   14   83 1    
    30   15   16 1    
    31   15   84 1    
    32   15   85 1    
    33   16   17 1    
    34   17   18 1    
    35   17   86 1    
    36   17   87 1    
    37   18   19 1    
    38   18   37 1    
    39   18   88 1    
    40   19   20 am   BACKBONE|DICT|INTERRES
    41   19   89 1    
    42   20   21 2    
    43   20   22 1    
    44   22   23 1    
    45   22   24 1    
    46   22   90 1    
    47   23   91 1    
    48   23   92 1    
    49   23   93 1    
    50   24   25 am   BACKBONE|DICT|INTERRES
    51   24   94 1    
    52   25   26 2    
    53   25   27 1    
    54   27   28 1    
    55   27   29 1    
    56   27   95 1    
    57   28   96 1    
    58   28   97 1    
    59   28   98 1    
    60   29   30 am   BACKBONE|DICT|INTERRES
    61   29   99 1    
    62   30   31 2    
    63   30   32 1    
    64   32   33 1    
    65   32   34 1    
    66   32  100 1    
    67   33  101 1    
    68   33  102 1    
    69   33  103 1    
    70   34   35 am   BACKBONE|DICT|INTERRES
    71   34  104 1    
    72   35   36 2    
    73   37   38 2    
    74   37   39 am   BACKBONE|DICT|INTERRES
    75   39   40 1    
    76   39  105 1    
    77   40   41 1    
    78   40   42 1    
    79   40  106 1    
    80   41  107 1    
    81   41  108 1    
    82   41  109 1    
    83   42   43 2    
    84   42   44 am   BACKBONE|DICT|INTERRES
    85   44   45 1    
    86   44  110 1    
    87   45   46 1    
    88   45   47 1    
    89   45  111 1    
    90   46  112 1    
    91   46  113 1    
    92   46  114 1    
    93   47   48 2    
    94   47   49 am   BACKBONE|DICT|INTERRES
    95   49   50 1    
    96   49  115 1    
    97   50   51 1    
    98   50   52 1    
    99   50  116 1    
   100   51  117 1    
   101   51  118 1    
   102   51  119 1    
   103   52   53 2    
   104   52   54 am   BACKBONE|DICT|INTERRES
   105   54   55 1    
   106   54  120 1    
   107   55   56 1    
   108   55   57 1    
   109   55  121 1    
   110   56  122 1    
   111   56  123 1    
   112   56  124 1    
   113   57   58 2    
   114   57   59 am   BACKBONE|DICT|INTERRES
   115   59   60 1    
   116   59  125 1    
   117   60   61 1    
   118   60   62 1    
   119   60  126 1    
   120   61  127 1    
   121   61  128 1    
   122   61  129 1    
   123   62   63 2    
   124   62   64 am   BACKBONE|DICT|INTERRES
   125   64   65 1    
   126   64  130 1    
   127   65   66 1    
   128   65   69 1    
   129   65  131 1    
   130   66   67 am   BACKBONE|DICT|INTERRES
   131   66   68 2    
   132   67  132 1    
   133   67  133 1    
   134   69   70 1    
   135   69  134 1    
   136   69  135 1    
   137   70   71 1    
   138   71  136 1    
   139   71  137 1    
@<TRIPOS>SUBSTRUCTURE
     1 UNK         1 GROUP             0       ****    0 ROOT    
