@<TRIPOS>MOLECULE
3R137
137   139    1
SMALL
USER_CHARGES


@<TRIPOS>ATOM
      1 CA         27.9597   -4.3906   -5.0408 C.3       0 UNK        -0.2020 
      2 C          28.1957   -4.7619   -3.5868 C.2       0 UNK         0.4855 
      3 O          27.8638   -5.8774   -3.1851 O.2       0 UNK        -0.5197 
      4 N          28.7631   -3.8425   -2.7924 N.am      1 UNK        -0.4892 
      5 CA         28.9931   -4.0318   -1.3540 C.3       1 UNK         0.0835 
      6 C6         30.0659   -3.0635   -0.7936 C.3       12 UNK        -0.0855 
      7 S7         29.6348   -1.2886   -0.8901 S.3       12 UNK        -0.2931 
      8 C8         30.8845   -0.6416   -2.0461 C.3       12 UNK         0.0378 
      9 C9         30.5045   -0.9148   -3.4923 C.ar      12 UNK        -0.0802 
     10 C10        31.1410   -1.9259   -4.2193 C.ar      12 UNK        -0.0944 
     11 C11        30.7929   -2.1644   -5.5524 C.ar      12 UNK        -0.0787 
     12 C12        29.7998   -1.3842   -6.1526 C.ar      12 UNK        -0.0862 
     13 C13        29.1652   -0.3646   -5.4405 C.ar      12 UNK        -0.0733 
     14 C14        29.5226   -0.1348   -4.1096 C.ar      12 UNK        -0.0832 
     15 C15        28.1174    0.5102   -6.1140 C.3       12 UNK         0.0240 
     16 S16        26.4616    0.2342   -5.4194 S.3       12 UNK        -0.2522 
     17 C17        26.0523   -1.4235   -6.0742 C.3       12 UNK        -0.0967 
     18 CA         24.6749   -1.5070   -6.7881 C.3       5 UNK         0.0660 
     19 N          23.5790   -0.9967   -5.9689 N.am      5 UNK        -0.4015 
     20 C          23.1164   -1.5569   -4.8494 C.2       4 UNK         0.4946 
     21 O          23.5038   -2.6408   -4.4035 O.2       4 UNK        -0.5353 
     22 CA         22.0289   -0.7829   -4.0983 C.3       4 UNK         0.0277 
     23 CB         20.6341   -1.3518   -4.4075 C.3       4 UNK        -0.1981 
     24 N          22.3031   -0.9106   -2.6707 N.am      4 UNK        -0.4209 
     25 C          22.3889    0.1030   -1.8016 C.2       3 UNK         0.4942 
     26 O          22.1142    1.2705   -2.0836 O.2       3 UNK        -0.5208 
     27 CA         22.8572   -0.2249   -0.3691 C.3       3 UNK         0.0250 
     28 CB         21.6630   -0.2116    0.6001 C.3       3 UNK        -0.1990 
     29 N          23.5693   -1.5018   -0.2306 N.am      3 UNK        -0.4232 
     30 C          24.7689   -1.7793   -0.7604 C.2       2 UNK         0.4993 
     31 O          25.4134   -0.9878   -1.4531 O.2       2 UNK        -0.5286 
     32 CA         25.3278   -3.1798   -0.4725 C.3       2 UNK         0.0209 
     33 CB         24.4396   -4.2830   -1.0806 C.3       2 UNK        -0.1931 
     34 N          26.6701   -3.2879   -1.0348 N.am      2 UNK        -0.4546 
     35 C          27.6813   -4.0082   -0.5355 C.2       1 UNK         0.5154 
     36 O          27.6040   -4.6615    0.5069 O.2       1 UNK        -0.5181 
     37 C          24.6466   -0.7572   -8.1320 C.2       5 UNK         0.5014 
     38 O          24.1380    0.3672   -8.1865 O.2       5 UNK        -0.5248 
     39 N          25.1595   -1.3990   -9.1904 N.am      6 UNK        -0.4434 
     40 CA         25.1089   -0.8887  -10.5662 C.3       6 UNK         0.0363 
     41 CB         24.5150   -1.9805  -11.4738 C.3       6 UNK        -0.1936 
     42 C          26.4755   -0.4405  -11.1129 C.2       6 UNK         0.5081 
     43 O          26.5018    0.2757  -12.1150 O.2       6 UNK        -0.5248 
     44 N          27.5820   -0.8794  -10.4956 N.am      7 UNK        -0.4718 
     45 CA         28.9416   -0.5740  -10.9538 C.3       7 UNK         0.0273 
     46 CB         29.9260   -1.5962  -10.3675 C.3       7 UNK        -0.1935 
     47 C          29.3674    0.8587  -10.5915 C.2       7 UNK         0.5018 
     48 O          28.9458    1.3882   -9.5600 O.2       7 UNK        -0.5186 
     49 N          30.2132    1.4468  -11.4451 N.am      8 UNK        -0.4240 
     50 CA         30.7592    2.7942  -11.2845 C.3       8 UNK         0.0235 
     51 CB         31.3205    3.2639  -12.6374 C.3       8 UNK        -0.2000 
     52 C          31.8524    2.8587  -10.2049 C.2       8 UNK         0.4941 
     53 O          32.5011    1.8489   -9.9152 O.2       8 UNK        -0.5273 
     54 N          32.0468    4.0681   -9.6554 N.am      9 UNK        -0.4262 
     55 CA         33.1121    4.4718   -8.7225 C.3       9 UNK         0.0264 
     56 CB         34.4657    4.5186   -9.4636 C.3       9 UNK        -0.1955 
     57 C          33.1943    3.6365   -7.4277 C.2       9 UNK         0.5031 
     58 O          34.2709    3.5429   -6.8346 O.2       9 UNK        -0.5390 
     59 N          32.0723    3.0140   -7.0338 N.am      10 UNK        -0.4204 
     60 CA         31.9325    2.0545   -5.9303 C.3       10 UNK         0.0237 
     61 CB         31.9781    2.7838   -4.5712 C.3       10 UNK        -0.1985 
     62 C          32.9273    0.8756   -6.0160 C.2       10 UNK         0.4970 
     63 O          33.4435    0.4352   -4.9873 O.2       10 UNK        -0.4914 
     64 N          33.2114    0.4274   -7.2486 N.am      11 UNK        -0.4285 
     65 CA         34.2304   -0.5791   -7.5895 C.3       11 UNK         0.1007 
     66 C          35.7010   -0.1455   -7.2915 C.2       11 UNK         0.5703 
     67 N          35.9916    1.1249   -7.0319 N.am      11 UNK        -0.7361 
     68 O          36.6122   -0.9692   -7.3361 O.2       11 UNK        -0.4986 
     69 C69        33.8942   -2.0014   -7.0492 C.3       12 UNK        -0.0947 
     70 S70        32.3741   -2.6818   -7.7913 S.3       12 UNK        -0.2240 
     71 C71        31.4602   -3.2862   -6.3365 C.3       12 UNK         0.0194 
     72 H72        28.1623   -3.3382   -5.2210 H         1 UNK         0.0906 
     73 H73        28.6034   -4.9825   -5.6904 H         1 UNK         0.0906 
     74 H74        26.9235   -4.5868   -5.3152 H         1 UNK         0.0906 
     75 H75        29.0354   -2.9414   -3.1643 H         1 UNK         0.3140 
     76 H76        29.3950   -5.0402   -1.2290 H         1 UNK         0.1085 
     77 H77        31.0103   -3.2366   -1.3114 H         1 UNK         0.0836 
     78 H78        30.2680   -3.3010    0.2526 H         1 UNK         0.0836 
     79 H79        31.8661   -1.0563   -1.8115 H         1 UNK         0.0731 
     80 H80        30.9718    0.4357   -1.8977 H         1 UNK         0.0731 
     81 H81        31.9071   -2.5257   -3.7474 H         1 UNK         0.1312 
     82 H82        29.5200   -1.5751   -7.1763 H         1 UNK         0.1406 
     83 H83        29.0320    0.6519   -3.5519 H         1 UNK         0.1631 
     84 H84        28.0923    0.3414   -7.1916 H         1 UNK         0.0717 
     85 H85        28.3847    1.5586   -5.9762 H         1 UNK         0.0717 
     86 H86        26.8452   -1.7735   -6.7364 H         1 UNK         0.0934 
     87 H87        26.0587   -2.1092   -5.2263 H         1 UNK         0.0934 
     88 H88        24.4586   -2.5565   -6.9999 H         1 UNK         0.0739 
     89 H89        23.2060   -0.1163   -6.3032 H         1 UNK         0.3093 
     90 H90        22.0658    0.2650   -4.4047 H         1 UNK         0.0818 
     91 H91        20.4058   -1.2704   -5.4709 H         1 UNK         0.0819 
     92 H92        20.5582   -2.4056   -4.1358 H         1 UNK         0.0819 
     93 H93        19.8582   -0.8101   -3.8662 H         1 UNK         0.0819 
     94 H94        22.6179   -1.8268   -2.3810 H         1 UNK         0.3041 
     95 H95        23.5455    0.5691   -0.0714 H         1 UNK         0.0784 
     96 H96        21.1299    0.7391    0.5510 H         1 UNK         0.0793 
     97 H97        20.9451   -0.9991    0.3671 H         1 UNK         0.0793 
     98 H98        21.9865   -0.3444    1.6327 H         1 UNK         0.0793 
     99 H99        23.1089   -2.2104    0.3230 H         1 UNK         0.3024 
    100 H100       25.3757   -3.3009    0.6123 H         1 UNK         0.1171 
    101 H101       24.3426   -4.1684   -2.1613 H         1 UNK         0.0786 
    102 H102       24.8536   -5.2733   -0.8892 H         1 UNK         0.0786 
    103 H103       23.4350   -4.2706   -0.6570 H         1 UNK         0.0786 
    104 H104       26.8401   -2.6999   -1.8408 H         1 UNK         0.2977 
    105 H105       25.5354   -2.3289   -9.0672 H         1 UNK         0.3127 
    106 H106       24.4501   -0.0194  -10.6248 H         1 UNK         0.0770 
    107 H107       25.1315   -2.8802  -11.4831 H         1 UNK         0.0814 
    108 H108       24.4332   -1.6316  -12.5044 H         1 UNK         0.0814 
    109 H109       23.5130   -2.2627  -11.1503 H         1 UNK         0.0814 
    110 H110       27.4929   -1.4184   -9.6491 H         1 UNK         0.2983 
    111 H111       28.9615   -0.6753  -12.0417 H         1 UNK         0.0947 
    112 H112       30.9300   -1.4455  -10.7669 H         1 UNK         0.0806 
    113 H113       29.6341   -2.6194  -10.6047 H         1 UNK         0.0806 
    114 H114       29.9990   -1.5063   -9.2868 H         1 UNK         0.0806 
    115 H115       30.5502    0.9197  -12.2374 H         1 UNK         0.3000 
    116 H116       29.9430    3.4598  -10.9940 H         1 UNK         0.0850 
    117 H117       32.1415    2.6300  -12.9755 H         1 UNK         0.0810 
    118 H118       31.7035    4.2834  -12.5733 H         1 UNK         0.0810 
    119 H119       30.5515    3.2585  -13.4103 H         1 UNK         0.0810 
    120 H120       31.4389    4.8194   -9.9538 H         1 UNK         0.3040 
    121 H121       32.8729    5.4880   -8.4058 H         1 UNK         0.0766 
    122 H122       34.7977    3.5218   -9.7569 H         1 UNK         0.0812 
    123 H123       34.4056    5.1303  -10.3637 H         1 UNK         0.0812 
    124 H124       35.2461    4.9495   -8.8351 H         1 UNK         0.0812 
    125 H125       31.2502    3.1440   -7.6071 H         1 UNK         0.3205 
    126 H126       30.9415    1.6184   -6.0396 H         1 UNK         0.0754 
    127 H127       31.7636    2.0971   -3.7516 H         1 UNK         0.0769 
    128 H128       31.2381    3.5825   -4.5244 H         1 UNK         0.0769 
    129 H129       32.9588    3.2215   -4.3823 H         1 UNK         0.0769 
    130 H130       32.7833    0.8857   -8.0456 H         1 UNK         0.2981 
    131 H131       34.2005   -0.6393   -8.6779 H         1 UNK         0.0541 
    132 H132       36.9503    1.3791   -6.8576 H         1 UNK         0.3459 
    133 H133       35.2686    1.8354   -6.9809 H         1 UNK         0.3459 
    134 H134       33.8126   -1.9955   -5.9617 H         1 UNK         0.0612 
    135 H135       34.6924   -2.7064   -7.2860 H         1 UNK         0.0612 
    136 H136       32.1331   -3.8661   -5.7030 H         1 UNK         0.0624 
    137 H137       30.6906   -3.9785   -6.6786 H         1 UNK         0.0624 
@<TRIPOS>BOND
     1    1    2 1    
     2    1   72 1    
     3    1   73 1    
     4    1   74 1    
     5    2    3 2    
     6    2    4 am   BACKBONE|DICT|INTERRES
     7    4    5 1    
     8    4   75 1    
     9    5    6 1    
    10    5   35 1    
    11    5   76 1    
    12    6    7 1    
    13    6   77 1    
    14    6   78 1    
    15    7    8 1    
    16    8    9 1    
    17    8   79 1    
    18    8   80 1    
    19    9   10 ar   
    20    9   14 ar   
    21   10   11 ar   
    22   10   81 1    
    23   11   12 ar   
    24   11   71 1    
    25   12   13 ar   
    26   12   82 1    
    27   13   14 ar   
    28   13   15 1    
    29   14   83 1    
    30   15   16 1    
    31   15   84 1    
    32   15   85 1    
    33   16   17 1    
    34   17   18 1    
    35   17   86 1    
    36   17   87 1    
    37   18   19 1    
    38   18   37 1    
    39   18   88 1    
    40   19   20 am   BACKBONE|DICT|INTERRES
    41   19   89 1    
    42   20   21 2    
    43   20   22 1    
    44   22   23 1    
    45   22   24 1    
    46   22   90 1    
    47   23   91 1    
    48   23   92 1    
    49   23   93 1    
    50   24   25 am   BACKBONE|DICT|INTERRES
    51   24   94 1    
    52   25   26 2    
    53   25   27 1    
    54   27   28 1    
    55   27   29 1    
    56   27   95 1    
    57   28   96 1    
    58   28   97 1    
    59   28   98 1    
    60   29   30 am   BACKBONE|DICT|INTERRES
    61   29   99 1    
    62   30   31 2    
    63   30   32 1    
    64   32   33 1    
    65   32   34 1    
    66   32  100 1    
    67   33  101 1    
    68   33  102 1    
    69   33  103 1    
    70   34   35 am   BACKBONE|DICT|INTERRES
    71   34  104 1    
    72   35   36 2    
    73   37   38 2    
    74   37   39 am   BACKBONE|DICT|INTERRES
    75   39   40 1    
    76   39  105 1    
    77   40   41 1    
    78   40   42 1    
    79   40  106 1    
    80   41  107 1    
    81   41  108 1    
    82   41  109 1    
    83   42   43 2    
    84   42   44 am   BACKBONE|DICT|INTERRES
    85   44   45 1    
    86   44  110 1    
    87   45   46 1    
    88   45   47 1    
    89   45  111 1    
    90   46  112 1    
    91   46  113 1    
    92   46  114 1    
    93   47   48 2    
    94   47   49 am   BACKBONE|DICT|INTERRES
    95   49   50 1    
    96   49  115 1    
    97   50   51 1    
    98   50   52 1    
    99   50  116 1    
   100   51  117 1    
   101   51  118 1    
   102   51  119 1    
   103   52   53 2    
   104   52   54 am   BACKBONE|DICT|INTERRES
   105   54   55 1    
   106   54  120 1    
   107   55   56 1    
   108   55   57 1    
   109   55  121 1    
   110   56  122 1    
   111   56  123 1    
   112   56  124 1    
   113   57   58 2    
   114   57   59 am   BACKBONE|DICT|INTERRES
   115   59   60 1    
   116   59  125 1    
   117   60   61 1    
   118   60   62 1    
   119   60  126 1    
   120   61  127 1    
   121   61  128 1    
   122   61  129 1    
   123   62   63 2    
   124   62   64 am   BACKBONE|DICT|INTERRES
   125   64   65 1    
   126   64  130 1    
   127   65   66 1    
   128   65   69 1    
   129   65  131 1    
   130   66   67 am   BACKBONE|DICT|INTERRES
   131   66   68 2    
   132   67  132 1    
   133   67  133 1    
   134   69   70 1    
   135   69  134 1    
   136   69  135 1    
   137   70   71 1    
   138   71  136 1    
   139   71  137 1    
@<TRIPOS>SUBSTRUCTURE
     1 UNK         1 GROUP             0       ****    0 ROOT    
