@<TRIPOS>MOLECULE
3R137
137   139    1
SMALL
USER_CHARGES


@<TRIPOS>ATOM
      1 CA         31.2671    0.1787   -4.6856 C.3       0 UNK        -0.2020 
      2 C          29.9866   -0.5993   -4.4415 C.2       0 UNK         0.4855 
      3 O          29.4896   -1.2880   -5.3333 O.2       0 UNK        -0.5197 
      4 N          29.4559   -0.4968   -3.2179 N.am      1 UNK        -0.4892 
      5 CA         28.2895   -1.2586   -2.7591 C.3       1 UNK         0.0835 
      6 C6         28.1370   -1.2593   -1.2152 C.3       12 UNK        -0.0855 
      7 S7         29.7183   -1.4415   -0.3085 S.3       12 UNK        -0.2931 
      8 C8         30.0042   -3.2425   -0.3141 C.3       12 UNK         0.0378 
      9 C9         30.3247   -3.7868   -1.7018 C.ar      12 UNK        -0.0802 
     10 C10        31.4660   -3.3607   -2.3930 C.ar      12 UNK        -0.0944 
     11 C11        31.7551   -3.8593   -3.6690 C.ar      12 UNK        -0.0787 
     12 C12        30.8931   -4.7960   -4.2481 C.ar      12 UNK        -0.0862 
     13 C13        29.7524   -5.2308   -3.5682 C.ar      12 UNK        -0.0733 
     14 C14        29.4798   -4.7313   -2.2916 C.ar      12 UNK        -0.0832 
     15 C15        28.8171   -6.2458   -4.2094 C.3       12 UNK         0.0240 
     16 S16        27.1510   -5.5642   -4.4774 S.3       12 UNK        -0.2522 
     17 C17        27.4920   -4.2067   -5.6487 C.3       12 UNK        -0.0967 
     18 CA         26.2197   -3.8067   -6.4408 C.3       5 UNK         0.0660 
     19 N          25.1398   -3.3656   -5.5547 N.am      5 UNK        -0.4015 
     20 C          23.8661   -3.7724   -5.6279 C.2       4 UNK         0.4946 
     21 O          23.4331   -4.5050   -6.5195 O.2       4 UNK        -0.5353 
     22 CA         22.9004   -3.3387   -4.5119 C.3       4 UNK         0.0277 
     23 CB         22.8231   -4.4211   -3.4195 C.3       4 UNK        -0.1981 
     24 N          23.2274   -2.0465   -3.8985 N.am      4 UNK        -0.4209 
     25 C          22.3087   -1.1762   -3.4497 C.2       3 UNK         0.4942 
     26 O          21.0939   -1.3694   -3.5219 O.2       3 UNK        -0.5208 
     27 CA         22.8049    0.1300   -2.7949 C.3       3 UNK         0.0250 
     28 CB         22.7830    0.0015   -1.2629 C.3       3 UNK        -0.1990 
     29 N          24.1464    0.5314   -3.2195 N.am      3 UNK        -0.4232 
     30 C          24.4753    0.9052   -4.4621 C.2       2 UNK         0.4993 
     31 O          23.6520    1.0837   -5.3600 O.2       2 UNK        -0.5286 
     32 CA         25.9700    1.0817   -4.7803 C.3       2 UNK         0.0209 
     33 CB         26.3206    2.5705   -4.9454 C.3       2 UNK        -0.1931 
     34 N          26.9325    0.4704   -3.8530 N.am      2 UNK        -0.4546 
     35 C          26.9921   -0.8126   -3.4629 C.2       1 UNK         0.5154 
     36 O          26.0972   -1.6345   -3.6634 O.2       1 UNK        -0.5181 
     37 C          26.4521   -2.7458   -7.5353 C.2       5 UNK         0.5014 
     38 O          25.5496   -2.5267   -8.3465 O.2       5 UNK        -0.5248 
     39 N          27.6442   -2.1321   -7.5943 N.am      6 UNK        -0.4434 
     40 CA         28.0172   -1.1836   -8.6427 C.3       6 UNK         0.0363 
     41 CB         29.5508   -1.1408   -8.7794 C.3       6 UNK        -0.1936 
     42 C          27.4434    0.2003   -8.3201 C.2       6 UNK         0.5081 
     43 O          28.0052    0.9062   -7.4843 O.2       6 UNK        -0.5248 
     44 N          26.3451    0.5769   -8.9883 N.am      7 UNK        -0.4718 
     45 CA         25.6256    1.8457   -8.7941 C.3       7 UNK         0.0273 
     46 CB         24.3843    1.8662   -9.6998 C.3       7 UNK        -0.1935 
     47 C          26.4775    3.1110   -9.0198 C.2       7 UNK         0.5018 
     48 O          26.2008    4.1441   -8.4107 O.2       7 UNK        -0.5186 
     49 N          27.5109    2.9965   -9.8650 N.am      8 UNK        -0.4240 
     50 CA         28.5232    4.0271  -10.1106 C.3       8 UNK         0.0235 
     51 CB         29.1568    3.7691  -11.4893 C.3       8 UNK        -0.2000 
     52 C          29.6150    4.0978   -9.0213 C.2       8 UNK         0.4941 
     53 O          30.4709    4.9792   -9.1037 O.2       8 UNK        -0.5273 
     54 N          29.5976    3.1664   -8.0529 N.am      9 UNK        -0.4262 
     55 CA         30.5741    2.9677   -6.9748 C.3       9 UNK         0.0264 
     56 CB         30.5959    4.1683   -6.0058 C.3       9 UNK        -0.1955 
     57 C          31.9754    2.5723   -7.4852 C.2       9 UNK         0.5031 
     58 O          32.9771    2.9094   -6.8519 O.2       9 UNK        -0.5390 
     59 N          32.0172    1.8517   -8.6165 N.am      10 UNK        -0.4204 
     60 CA         33.2221    1.4984   -9.3760 C.3       10 UNK         0.0237 
     61 CB         32.8187    0.6977  -10.6253 C.3       10 UNK        -0.1985 
     62 C          34.3027    0.7465   -8.5790 C.2       10 UNK         0.4970 
     63 O          35.4848    1.0500   -8.7449 O.2       10 UNK        -0.4914 
     64 N          33.8842   -0.2022   -7.7320 N.am      11 UNK        -0.4285 
     65 CA         34.7655   -0.9533   -6.8228 C.3       11 UNK         0.1007 
     66 C          35.0258   -0.2575   -5.4531 C.2       11 UNK         0.5703 
     67 N          34.5594    0.9642   -5.2175 N.am      11 UNK        -0.7361 
     68 O          35.6857   -0.8296   -4.5889 O.2       11 UNK        -0.4986 
     69 C69        34.3371   -2.4413   -6.6960 C.3       12 UNK        -0.0947 
     70 S70        32.6529   -2.7052   -6.0466 S.3       12 UNK        -0.2240 
     71 C71        33.0145   -3.4198   -4.4082 C.3       12 UNK         0.0194 
     72 H72        32.0889   -0.2746   -4.1321 H         1 UNK         0.0906 
     73 H73        31.5256    0.1631   -5.7426 H         1 UNK         0.0906 
     74 H74        31.1671    1.2156   -4.3666 H         1 UNK         0.0906 
     75 H75        29.9274    0.0444   -2.5065 H         1 UNK         0.3140 
     76 H76        28.4520   -2.2909   -3.0693 H         1 UNK         0.1085 
     77 H77        27.6884   -0.3226   -0.8783 H         1 UNK         0.0836 
     78 H78        27.4513   -2.0495   -0.9029 H         1 UNK         0.0836 
     79 H79        29.1348   -3.7427    0.1155 H         1 UNK         0.0731 
     80 H80        30.8413   -3.4644    0.3490 H         1 UNK         0.0731 
     81 H81        32.1252   -2.6363   -1.9345 H         1 UNK         0.1312 
     82 H82        31.1145   -5.1839   -5.2330 H         1 UNK         0.1406 
     83 H83        28.5967   -5.0707   -1.7669 H         1 UNK         0.1631 
     84 H84        28.7410   -7.1195   -3.5607 H         1 UNK         0.0717 
     85 H85        29.2149   -6.6030   -5.1605 H         1 UNK         0.0717 
     86 H86        27.8893   -3.3632   -5.0854 H         1 UNK         0.0934 
     87 H87        28.2819   -4.5295   -6.3299 H         1 UNK         0.0934 
     88 H88        25.8992   -4.7030   -6.9764 H         1 UNK         0.0739 
     89 H89        25.4353   -2.7570   -4.7943 H         1 UNK         0.3093 
     90 H90        21.9187   -3.2658   -4.9856 H         1 UNK         0.0818 
     91 H91        22.5804   -5.3946   -3.8480 H         1 UNK         0.0819 
     92 H92        23.7714   -4.5239   -2.8903 H         1 UNK         0.0819 
     93 H93        22.0514   -4.1905   -2.6850 H         1 UNK         0.0819 
     94 H94        24.2106   -1.8147   -3.7901 H         1 UNK         0.3041 
     95 H95        22.1113    0.9229   -3.0832 H         1 UNK         0.0784 
     96 H96        21.7868   -0.2673   -0.9081 H         1 UNK         0.0793 
     97 H97        23.4719   -0.7681   -0.9122 H         1 UNK         0.0793 
     98 H98        23.0531    0.9413   -0.7809 H         1 UNK         0.0793 
     99 H99        24.8928    0.4096   -2.5511 H         1 UNK         0.3024 
    100 H100       26.1178    0.5870   -5.7402 H         1 UNK         0.1171 
    101 H101       27.3199    2.6969   -5.3635 H         1 UNK         0.0786 
    102 H102       25.6279    3.0694   -5.6247 H         1 UNK         0.0786 
    103 H103       26.2813    3.1014   -3.9937 H         1 UNK         0.0786 
    104 H104       27.7356    1.0389   -3.6263 H         1 UNK         0.2977 
    105 H105       28.3107   -2.2305   -6.8345 H         1 UNK         0.3127 
    106 H106       27.6120   -1.5236   -9.5985 H         1 UNK         0.0770 
    107 H107       30.0352   -0.7934   -7.8665 H         1 UNK         0.0814 
    108 H108       29.8487   -0.4686   -9.5843 H         1 UNK         0.0814 
    109 H109       29.9550   -2.1256   -9.0140 H         1 UNK         0.0814 
    110 H110       25.9269   -0.0840   -9.6292 H         1 UNK         0.2983 
    111 H111       25.2862    1.8704   -7.7571 H         1 UNK         0.0947 
    112 H112       23.8139    2.7857   -9.5599 H         1 UNK         0.0806 
    113 H113       23.7146    1.0362   -9.4735 H         1 UNK         0.0806 
    114 H114       24.6525    1.8058  -10.7553 H         1 UNK         0.0806 
    115 H115       27.6422    2.1090  -10.3281 H         1 UNK         0.3000 
    116 H116       28.0312    5.0019  -10.1367 H         1 UNK         0.0850 
    117 H117       29.8833    4.5439  -11.7386 H         1 UNK         0.0810 
    118 H118       28.4046    3.7709  -12.2785 H         1 UNK         0.0810 
    119 H119       29.6784    2.8118  -11.5233 H         1 UNK         0.0810 
    120 H120       28.8441    2.4818   -8.0501 H         1 UNK         0.3040 
    121 H121       30.2036    2.1102   -6.4147 H         1 UNK         0.0766 
    122 H122       31.0131    5.0599   -6.4743 H         1 UNK         0.0812 
    123 H123       31.2040    3.9501   -5.1270 H         1 UNK         0.0812 
    124 H124       29.5935    4.4108   -5.6530 H         1 UNK         0.0812 
    125 H125       31.1348    1.6264   -9.0494 H         1 UNK         0.3205 
    126 H126       33.6680    2.4381   -9.7086 H         1 UNK         0.0754 
    127 H127       33.6933    0.4501  -11.2290 H         1 UNK         0.0769 
    128 H128       32.1411    1.2669  -11.2621 H         1 UNK         0.0769 
    129 H129       32.3282   -0.2410  -10.3646 H         1 UNK         0.0769 
    130 H130       32.8975   -0.3931   -7.6493 H         1 UNK         0.2981 
    131 H131       35.7546   -0.9857   -7.2831 H         1 UNK         0.0541 
    132 H132       34.0519    1.4879   -5.9219 H         1 UNK         0.3459 
    133 H133       34.7565    1.3937   -4.3284 H         1 UNK         0.3459 
    134 H134       35.0569   -2.9959   -6.0916 H         1 UNK         0.0612 
    135 H135       34.3762   -2.9068   -7.6818 H         1 UNK         0.0612 
    136 H136       33.5713   -2.6877   -3.8215 H         1 UNK         0.0624 
    137 H137       33.6668   -4.2856   -4.5299 H         1 UNK         0.0624 
@<TRIPOS>BOND
     1    1    2 1    
     2    1   72 1    
     3    1   73 1    
     4    1   74 1    
     5    2    3 2    
     6    2    4 am   BACKBONE|DICT|INTERRES
     7    4    5 1    
     8    4   75 1    
     9    5    6 1    
    10    5   35 1    
    11    5   76 1    
    12    6    7 1    
    13    6   77 1    
    14    6   78 1    
    15    7    8 1    
    16    8    9 1    
    17    8   79 1    
    18    8   80 1    
    19    9   10 ar   
    20    9   14 ar   
    21   10   11 ar   
    22   10   81 1    
    23   11   12 ar   
    24   11   71 1    
    25   12   13 ar   
    26   12   82 1    
    27   13   14 ar   
    28   13   15 1    
    29   14   83 1    
    30   15   16 1    
    31   15   84 1    
    32   15   85 1    
    33   16   17 1    
    34   17   18 1    
    35   17   86 1    
    36   17   87 1    
    37   18   19 1    
    38   18   37 1    
    39   18   88 1    
    40   19   20 am   BACKBONE|DICT|INTERRES
    41   19   89 1    
    42   20   21 2    
    43   20   22 1    
    44   22   23 1    
    45   22   24 1    
    46   22   90 1    
    47   23   91 1    
    48   23   92 1    
    49   23   93 1    
    50   24   25 am   BACKBONE|DICT|INTERRES
    51   24   94 1    
    52   25   26 2    
    53   25   27 1    
    54   27   28 1    
    55   27   29 1    
    56   27   95 1    
    57   28   96 1    
    58   28   97 1    
    59   28   98 1    
    60   29   30 am   BACKBONE|DICT|INTERRES
    61   29   99 1    
    62   30   31 2    
    63   30   32 1    
    64   32   33 1    
    65   32   34 1    
    66   32  100 1    
    67   33  101 1    
    68   33  102 1    
    69   33  103 1    
    70   34   35 am   BACKBONE|DICT|INTERRES
    71   34  104 1    
    72   35   36 2    
    73   37   38 2    
    74   37   39 am   BACKBONE|DICT|INTERRES
    75   39   40 1    
    76   39  105 1    
    77   40   41 1    
    78   40   42 1    
    79   40  106 1    
    80   41  107 1    
    81   41  108 1    
    82   41  109 1    
    83   42   43 2    
    84   42   44 am   BACKBONE|DICT|INTERRES
    85   44   45 1    
    86   44  110 1    
    87   45   46 1    
    88   45   47 1    
    89   45  111 1    
    90   46  112 1    
    91   46  113 1    
    92   46  114 1    
    93   47   48 2    
    94   47   49 am   BACKBONE|DICT|INTERRES
    95   49   50 1    
    96   49  115 1    
    97   50   51 1    
    98   50   52 1    
    99   50  116 1    
   100   51  117 1    
   101   51  118 1    
   102   51  119 1    
   103   52   53 2    
   104   52   54 am   BACKBONE|DICT|INTERRES
   105   54   55 1    
   106   54  120 1    
   107   55   56 1    
   108   55   57 1    
   109   55  121 1    
   110   56  122 1    
   111   56  123 1    
   112   56  124 1    
   113   57   58 2    
   114   57   59 am   BACKBONE|DICT|INTERRES
   115   59   60 1    
   116   59  125 1    
   117   60   61 1    
   118   60   62 1    
   119   60  126 1    
   120   61  127 1    
   121   61  128 1    
   122   61  129 1    
   123   62   63 2    
   124   62   64 am   BACKBONE|DICT|INTERRES
   125   64   65 1    
   126   64  130 1    
   127   65   66 1    
   128   65   69 1    
   129   65  131 1    
   130   66   67 am   BACKBONE|DICT|INTERRES
   131   66   68 2    
   132   67  132 1    
   133   67  133 1    
   134   69   70 1    
   135   69  134 1    
   136   69  135 1    
   137   70   71 1    
   138   71  136 1    
   139   71  137 1    
@<TRIPOS>SUBSTRUCTURE
     1 UNK         1 GROUP             0       ****    0 ROOT    
