@<TRIPOS>MOLECULE
3R137
137   139    1
SMALL
USER_CHARGES


@<TRIPOS>ATOM
      1 CA         28.3222   -6.1698   -4.4174 C.3       0 UNK        -0.2020 
      2 C          27.4251   -5.4445   -3.4265 C.2       0 UNK         0.4855 
      3 O          26.2082   -5.4068   -3.6131 O.2       0 UNK        -0.5197 
      4 N          28.0169   -4.8894   -2.3620 N.am      1 UNK        -0.4892 
      5 CA         27.3173   -4.1553   -1.3053 C.3       1 UNK         0.0835 
      6 C6         28.0459   -4.3146    0.0641 C.3       12 UNK        -0.0855 
      7 S7         29.2891   -3.0666    0.5570 S.3       12 UNK        -0.2931 
      8 C8         30.8233   -3.6570   -0.2418 C.3       12 UNK         0.0378 
      9 C9         30.9372   -3.1703   -1.6809 C.ar      12 UNK        -0.0802 
     10 C10        31.1983   -4.0640   -2.7235 C.ar      12 UNK        -0.0944 
     11 C11        31.2375   -3.6152   -4.0483 C.ar      12 UNK        -0.0787 
     12 C12        31.0057   -2.2623   -4.3227 C.ar      12 UNK        -0.0862 
     13 C13        30.7735   -1.3504   -3.2888 C.ar      12 UNK        -0.0733 
     14 C14        30.7728   -1.8132   -1.9697 C.ar      12 UNK        -0.0832 
     15 C15        30.5086    0.1220   -3.6045 C.3       12 UNK         0.0240 
     16 S16        29.1690    0.8148   -2.5674 S.3       12 UNK        -0.2522 
     17 C17        28.3572    2.1051   -3.5721 C.3       12 UNK        -0.0967 
     18 CA         28.0204    1.7381   -5.0420 C.3       5 UNK         0.0660 
     19 N          27.5773    0.3537   -5.2231 N.am      5 UNK        -0.4015 
     20 C          27.4819   -0.2555   -6.4130 C.2       4 UNK         0.4946 
     21 O          27.8164    0.2662   -7.4779 O.2       4 UNK        -0.5353 
     22 CA         26.8727   -1.6654   -6.4245 C.3       4 UNK         0.0277 
     23 CB         27.9549   -2.7394   -6.2479 C.3       4 UNK        -0.1981 
     24 N          25.8342   -1.8288   -5.4036 N.am      4 UNK        -0.4209 
     25 C          24.6208   -1.2617   -5.4855 C.2       3 UNK         0.4942 
     26 O          24.2507   -0.5853   -6.4437 O.2       3 UNK        -0.5208 
     27 CA         23.6695   -1.4374   -4.2895 C.3       3 UNK         0.0250 
     28 CB         22.8776   -2.7477   -4.4213 C.3       3 UNK        -0.1990 
     29 N          24.3493   -1.4074   -2.9939 N.am      3 UNK        -0.4232 
     30 C          25.0590   -0.3748   -2.5165 C.2       2 UNK         0.4993 
     31 O          25.1804    0.7018   -3.1024 O.2       2 UNK        -0.5286 
     32 CA         25.7969   -0.5991   -1.1834 C.3       2 UNK         0.0209 
     33 CB         24.9414   -0.1037   -0.0071 C.3       2 UNK        -0.1931 
     34 N          26.2048   -1.9912   -0.9403 N.am      2 UNK        -0.4546 
     35 C          27.0038   -2.7061   -1.7473 C.2       1 UNK         0.5154 
     36 O          27.4370   -2.2714   -2.8183 O.2       1 UNK        -0.5181 
     37 C          26.9771    2.7145   -5.6195 C.2       5 UNK         0.5014 
     38 O          27.3457    3.6308   -6.3538 O.2       5 UNK        -0.5248 
     39 N          25.6917    2.4716   -5.3150 N.am      6 UNK        -0.4434 
     40 CA         24.5428    3.2169   -5.8404 C.3       6 UNK         0.0363 
     41 CB         23.2601    2.7433   -5.1393 C.3       6 UNK        -0.1936 
     42 C          24.3966    3.1109   -7.3694 C.2       6 UNK         0.5081 
     43 O          24.0433    4.0990   -8.0129 O.2       6 UNK        -0.5248 
     44 N          24.7093    1.9332   -7.9280 N.am      7 UNK        -0.4718 
     45 CA         24.7815    1.6776   -9.3707 C.3       7 UNK         0.0273 
     46 CB         24.7449    0.1593   -9.6115 C.3       7 UNK        -0.1935 
     47 C          26.0168    2.2978  -10.0556 C.2       7 UNK         0.5018 
     48 O          26.0803    2.2774  -11.2856 O.2       7 UNK        -0.5186 
     49 N          26.9653    2.8244   -9.2654 N.am      8 UNK        -0.4240 
     50 CA         28.2347    3.4350   -9.6698 C.3       8 UNK         0.0235 
     51 CB         27.9957    4.7334  -10.4709 C.3       8 UNK        -0.2000 
     52 C          29.1749    2.4426  -10.3785 C.2       8 UNK         0.4941 
     53 O          29.7731    2.7831  -11.4022 O.2       8 UNK        -0.5273 
     54 N          29.2955    1.2304   -9.8181 N.am      9 UNK        -0.4262 
     55 CA         30.2493    0.2096  -10.2575 C.3       9 UNK         0.0264 
     56 CB         29.9103   -1.1198   -9.5602 C.3       9 UNK        -0.1955 
     57 C          31.7043    0.6128   -9.9515 C.2       9 UNK         0.5031 
     58 O          31.9485    1.4179   -9.0493 O.2       9 UNK        -0.5390 
     59 N          32.6512    0.0006  -10.6763 N.am      10 UNK        -0.4204 
     60 CA         34.0960    0.1468  -10.4479 C.3       10 UNK         0.0237 
     61 CB         34.8588   -0.4131  -11.6601 C.3       10 UNK        -0.1985 
     62 C          34.5819   -0.5247   -9.1469 C.2       10 UNK         0.4970 
     63 O          35.6445   -0.1626   -8.6406 O.2       10 UNK        -0.4914 
     64 N          33.8003   -1.4883   -8.6438 N.am      11 UNK        -0.4285 
     65 CA         33.9636   -2.1655   -7.3532 C.3       11 UNK         0.1007 
     66 C          33.9115   -1.1734   -6.1552 C.2       11 UNK         0.5703 
     67 N          34.7959   -1.3247   -5.1787 N.am      11 UNK        -0.7361 
     68 O          33.0598   -0.2894   -6.0955 O.2       11 UNK        -0.4986 
     69 C69        32.8984   -3.2866   -7.2416 C.3       12 UNK        -0.0947 
     70 S70        33.1741   -4.4528   -5.8662 S.3       12 UNK        -0.2240 
     71 C71        31.4945   -4.6033   -5.1786 C.3       12 UNK         0.0194 
     72 H72        28.5561   -5.5259   -5.2628 H         1 UNK         0.0906 
     73 H73        29.2559   -6.4849   -3.9529 H         1 UNK         0.0906 
     74 H74        27.8228   -7.0611   -4.7967 H         1 UNK         0.0906 
     75 H75        29.0247   -4.8506   -2.3142 H         1 UNK         0.3140 
     76 H76        26.3429   -4.6357   -1.1862 H         1 UNK         0.1085 
     77 H77        28.4904   -5.3081    0.1458 H         1 UNK         0.0836 
     78 H78        27.2905   -4.2946    0.8514 H         1 UNK         0.0836 
     79 H79        30.8747   -4.7453   -0.1830 H         1 UNK         0.0731 
     80 H80        31.6779   -3.2769    0.3193 H         1 UNK         0.0731 
     81 H81        31.3599   -5.1112   -2.5062 H         1 UNK         0.1312 
     82 H82        31.0054   -1.9131   -5.3444 H         1 UNK         0.1406 
     83 H83        30.5917   -1.1207   -1.1595 H         1 UNK         0.1631 
     84 H84        30.2699    0.2318   -4.6612 H         1 UNK         0.0717 
     85 H85        31.4221    0.6931   -3.4360 H         1 UNK         0.0717 
     86 H86        27.4499    2.3725   -3.0257 H         1 UNK         0.0934 
     87 H87        28.9841    2.9984   -3.5505 H         1 UNK         0.0934 
     88 H88        28.9316    1.8634   -5.6309 H         1 UNK         0.0739 
     89 H89        27.3059   -0.1475   -4.3875 H         1 UNK         0.3093 
     90 H90        26.4154   -1.8136   -7.4049 H         1 UNK         0.0818 
     91 H91        27.5397   -3.7339   -6.4066 H         1 UNK         0.0819 
     92 H92        28.7639   -2.6079   -6.9671 H         1 UNK         0.0819 
     93 H93        28.3927   -2.7125   -5.2504 H         1 UNK         0.0819 
     94 H94        26.0990   -2.3169   -4.5553 H         1 UNK         0.3041 
     95 H95        22.9618   -0.6062   -4.3078 H         1 UNK         0.0784 
     96 H96        22.3465   -2.7878   -5.3736 H         1 UNK         0.0793 
     97 H97        23.5301   -3.6211   -4.3746 H         1 UNK         0.0793 
     98 H98        22.1312   -2.8424   -3.6323 H         1 UNK         0.0793 
     99 H99        24.3132   -2.2514   -2.4414 H         1 UNK         0.3024 
    100 H100       26.7061    0.0033   -1.2195 H         1 UNK         0.1171 
    101 H101       25.4923   -0.1517    0.9325 H         1 UNK         0.0786 
    102 H102       24.6441    0.9361   -0.1523 H         1 UNK         0.0786 
    103 H103       24.0293   -0.6910    0.1058 H         1 UNK         0.0786 
    104 H104       25.8885   -2.4080   -0.0764 H         1 UNK         0.2977 
    105 H105       25.4846    1.7273   -4.6508 H         1 UNK         0.3127 
    106 H106       24.6966    4.2701   -5.5966 H         1 UNK         0.0770 
    107 H107       23.0545    1.6922   -5.3433 H         1 UNK         0.0814 
    108 H108       22.3961    3.3166   -5.4778 H         1 UNK         0.0814 
    109 H109       23.3292    2.8667   -4.0583 H         1 UNK         0.0814 
    110 H110       24.9005    1.1430   -7.3197 H         1 UNK         0.2983 
    111 H111       23.8996    2.1191   -9.8396 H         1 UNK         0.0947 
    112 H112       25.6135   -0.3355   -9.1767 H         1 UNK         0.0806 
    113 H113       24.7398   -0.0697  -10.6780 H         1 UNK         0.0806 
    114 H114       23.8503   -0.2907   -9.1808 H         1 UNK         0.0806 
    115 H115       26.8164    2.7810   -8.2641 H         1 UNK         0.3000 
    116 H116       28.7416    3.7137   -8.7448 H         1 UNK         0.0850 
    117 H117       27.3471    5.4201   -9.9269 H         1 UNK         0.0810 
    118 H118       27.5381    4.5352  -11.4405 H         1 UNK         0.0810 
    119 H119       28.9355    5.2548  -10.6568 H         1 UNK         0.0810 
    120 H120       28.7666    1.0195   -8.9741 H         1 UNK         0.3040 
    121 H121       30.1374    0.0830  -11.3365 H         1 UNK         0.0766 
    122 H122       30.5283   -1.9354   -9.9366 H         1 UNK         0.0812 
    123 H123       28.8699   -1.4014   -9.7254 H         1 UNK         0.0812 
    124 H124       30.0707   -1.0570   -8.4828 H         1 UNK         0.0812 
    125 H125       32.3704   -0.6350  -11.4102 H         1 UNK         0.3205 
    126 H126       34.3203    1.2126  -10.3657 H         1 UNK         0.0754 
    127 H127       35.9356   -0.2898  -11.5345 H         1 UNK         0.0769 
    128 H128       34.5814    0.1054  -12.5782 H         1 UNK         0.0769 
    129 H129       34.6678   -1.4775  -11.8030 H         1 UNK         0.0769 
    130 H130       32.9489   -1.6982   -9.1388 H         1 UNK         0.2981 
    131 H131       34.9505   -2.6322   -7.3695 H         1 UNK         0.0541 
    132 H132       34.7642   -0.6989   -4.3900 H         1 UNK         0.3459 
    133 H133       35.4812   -2.0631   -5.2071 H         1 UNK         0.3459 
    134 H134       31.8988   -2.8548   -7.1845 H         1 UNK         0.0612 
    135 H135       32.9033   -3.8875   -8.1526 H         1 UNK         0.0612 
    136 H136       30.7488   -4.4769   -5.9645 H         1 UNK         0.0624 
    137 H137       31.3763   -5.6254   -4.8173 H         1 UNK         0.0624 
@<TRIPOS>BOND
     1    1    2 1    
     2    1   72 1    
     3    1   73 1    
     4    1   74 1    
     5    2    3 2    
     6    2    4 am   BACKBONE|DICT|INTERRES
     7    4    5 1    
     8    4   75 1    
     9    5    6 1    
    10    5   35 1    
    11    5   76 1    
    12    6    7 1    
    13    6   77 1    
    14    6   78 1    
    15    7    8 1    
    16    8    9 1    
    17    8   79 1    
    18    8   80 1    
    19    9   10 ar   
    20    9   14 ar   
    21   10   11 ar   
    22   10   81 1    
    23   11   12 ar   
    24   11   71 1    
    25   12   13 ar   
    26   12   82 1    
    27   13   14 ar   
    28   13   15 1    
    29   14   83 1    
    30   15   16 1    
    31   15   84 1    
    32   15   85 1    
    33   16   17 1    
    34   17   18 1    
    35   17   86 1    
    36   17   87 1    
    37   18   19 1    
    38   18   37 1    
    39   18   88 1    
    40   19   20 am   BACKBONE|DICT|INTERRES
    41   19   89 1    
    42   20   21 2    
    43   20   22 1    
    44   22   23 1    
    45   22   24 1    
    46   22   90 1    
    47   23   91 1    
    48   23   92 1    
    49   23   93 1    
    50   24   25 am   BACKBONE|DICT|INTERRES
    51   24   94 1    
    52   25   26 2    
    53   25   27 1    
    54   27   28 1    
    55   27   29 1    
    56   27   95 1    
    57   28   96 1    
    58   28   97 1    
    59   28   98 1    
    60   29   30 am   BACKBONE|DICT|INTERRES
    61   29   99 1    
    62   30   31 2    
    63   30   32 1    
    64   32   33 1    
    65   32   34 1    
    66   32  100 1    
    67   33  101 1    
    68   33  102 1    
    69   33  103 1    
    70   34   35 am   BACKBONE|DICT|INTERRES
    71   34  104 1    
    72   35   36 2    
    73   37   38 2    
    74   37   39 am   BACKBONE|DICT|INTERRES
    75   39   40 1    
    76   39  105 1    
    77   40   41 1    
    78   40   42 1    
    79   40  106 1    
    80   41  107 1    
    81   41  108 1    
    82   41  109 1    
    83   42   43 2    
    84   42   44 am   BACKBONE|DICT|INTERRES
    85   44   45 1    
    86   44  110 1    
    87   45   46 1    
    88   45   47 1    
    89   45  111 1    
    90   46  112 1    
    91   46  113 1    
    92   46  114 1    
    93   47   48 2    
    94   47   49 am   BACKBONE|DICT|INTERRES
    95   49   50 1    
    96   49  115 1    
    97   50   51 1    
    98   50   52 1    
    99   50  116 1    
   100   51  117 1    
   101   51  118 1    
   102   51  119 1    
   103   52   53 2    
   104   52   54 am   BACKBONE|DICT|INTERRES
   105   54   55 1    
   106   54  120 1    
   107   55   56 1    
   108   55   57 1    
   109   55  121 1    
   110   56  122 1    
   111   56  123 1    
   112   56  124 1    
   113   57   58 2    
   114   57   59 am   BACKBONE|DICT|INTERRES
   115   59   60 1    
   116   59  125 1    
   117   60   61 1    
   118   60   62 1    
   119   60  126 1    
   120   61  127 1    
   121   61  128 1    
   122   61  129 1    
   123   62   63 2    
   124   62   64 am   BACKBONE|DICT|INTERRES
   125   64   65 1    
   126   64  130 1    
   127   65   66 1    
   128   65   69 1    
   129   65  131 1    
   130   66   67 am   BACKBONE|DICT|INTERRES
   131   66   68 2    
   132   67  132 1    
   133   67  133 1    
   134   69   70 1    
   135   69  134 1    
   136   69  135 1    
   137   70   71 1    
   138   71  136 1    
   139   71  137 1    
@<TRIPOS>SUBSTRUCTURE
     1 UNK         1 GROUP             0       ****    0 ROOT    
