@<TRIPOS>MOLECULE
3R137
137   139    1
SMALL
USER_CHARGES


@<TRIPOS>ATOM
      1 CA         23.4903   -4.6376   -2.1288 C.3       0 UNK        -0.2020 
      2 C          24.5880   -3.6934   -1.6638 C.2       0 UNK         0.4855 
      3 O          24.4026   -2.4739   -1.6753 O.2       0 UNK        -0.5197 
      4 N          25.7278   -4.2599   -1.2480 N.am      1 UNK        -0.4892 
      5 CA         26.9073   -3.5481   -0.7450 C.3       1 UNK         0.0835 
      6 C6         27.9094   -4.4957   -0.0312 C.3       12 UNK        -0.0855 
      7 S7         28.3221   -6.0239   -0.9414 S.3       12 UNK        -0.2931 
      8 C8         30.0551   -5.7384   -1.4418 C.3       12 UNK         0.0378 
      9 C9         30.1891   -5.0293   -2.7854 C.ar      12 UNK        -0.0802 
     10 C10        31.1006   -3.9791   -2.9448 C.ar      12 UNK        -0.0944 
     11 C11        31.2872   -3.3789   -4.1963 C.ar      12 UNK        -0.0787 
     12 C12        30.5461   -3.8340   -5.2906 C.ar      12 UNK        -0.0862 
     13 C13        29.6056   -4.8580   -5.1366 C.ar      12 UNK        -0.0733 
     14 C14        29.4455   -5.4610   -3.8883 C.ar      12 UNK        -0.0832 
     15 C15        28.7421   -5.3043   -6.3078 C.3       12 UNK         0.0240 
     16 S16        27.1358   -4.4421   -6.3069 S.3       12 UNK        -0.2522 
     17 C17        27.7120   -2.7347   -6.5535 C.3       12 UNK        -0.0967 
     18 CA         26.6033   -1.7623   -7.0027 C.3       5 UNK         0.0660 
     19 N          25.5897   -1.5708   -5.9628 N.am      5 UNK        -0.4015 
     20 C          24.3975   -0.9927   -6.1670 C.2       4 UNK         0.4946 
     21 O          24.0092   -0.5860   -7.2627 O.2       4 UNK        -0.5353 
     22 CA         23.5041   -0.8064   -4.9299 C.3       4 UNK         0.0277 
     23 CB         22.7609   -2.1092   -4.6014 C.3       4 UNK        -0.1981 
     24 N          24.2644   -0.3437   -3.7620 N.am      4 UNK        -0.4209 
     25 C          24.7983    0.8864   -3.6794 C.2       3 UNK         0.4942 
     26 O          24.6725    1.7449   -4.5520 O.2       3 UNK        -0.5208 
     27 CA         25.6682    1.1979   -2.4611 C.3       3 UNK         0.0250 
     28 CB         24.8731    1.1412   -1.1446 C.3       3 UNK        -0.1990 
     29 N          26.7894    0.2661   -2.4253 N.am      3 UNK        -0.4232 
     30 C          28.0404    0.5516   -2.0485 C.2       2 UNK         0.4993 
     31 O          28.4046    1.6695   -1.6812 O.2       2 UNK        -0.5286 
     32 CA         29.0325   -0.6311   -2.0472 C.3       2 UNK         0.0209 
     33 CB         30.3997   -0.2610   -1.4430 C.3       2 UNK        -0.1931 
     34 N          28.4796   -1.7685   -1.3083 N.am      2 UNK        -0.4546 
     35 C          27.5721   -2.6268   -1.7918 C.2       1 UNK         0.5154 
     36 O          27.2009   -2.6140   -2.9706 O.2       1 UNK        -0.5181 
     37 C          27.2623   -0.4410   -7.4389 C.2       5 UNK         0.5014 
     38 O          27.6961   -0.3441   -8.5870 O.2       5 UNK        -0.5248 
     39 N          27.3575    0.5390   -6.5274 N.am      6 UNK        -0.4434 
     40 CA         28.1292    1.7789   -6.6853 C.3       6 UNK         0.0363 
     41 CB         28.1480    2.5380   -5.3491 C.3       6 UNK        -0.1936 
     42 C          27.6850    2.7026   -7.8358 C.2       6 UNK         0.5081 
     43 O          28.4266    3.6188   -8.1902 O.2       6 UNK        -0.5248 
     44 N          26.5060    2.4432   -8.4147 N.am      7 UNK        -0.4718 
     45 CA         26.0252    3.0744   -9.6434 C.3       7 UNK         0.0273 
     46 CB         24.5209    2.7915   -9.7881 C.3       7 UNK        -0.1935 
     47 C          26.7825    2.6165  -10.9076 C.2       7 UNK         0.5018 
     48 O          26.7312    3.3295  -11.9111 O.2       7 UNK        -0.5186 
     49 N          27.4447    1.4501  -10.8566 N.am      8 UNK        -0.4240 
     50 CA         28.1625    0.8490  -11.9851 C.3       8 UNK         0.0235 
     51 CB         27.3392   -0.3255  -12.5410 C.3       8 UNK        -0.2000 
     52 C          29.5810    0.3848  -11.6180 C.2       8 UNK         0.4941 
     53 O          30.4767    0.4974  -12.4569 O.2       8 UNK        -0.5273 
     54 N          29.7705   -0.1476  -10.4031 N.am      9 UNK        -0.4262 
     55 CA         31.0541   -0.6427   -9.9013 C.3       9 UNK         0.0264 
     56 CB         30.8014   -1.5415   -8.6792 C.3       9 UNK        -0.1955 
     57 C          32.0151    0.4969   -9.5309 C.2       9 UNK         0.5031 
     58 O          31.5780    1.6183   -9.2613 O.2       9 UNK        -0.5390 
     59 N          33.3117    0.1640   -9.4606 N.am      10 UNK        -0.4204 
     60 CA         34.4081    1.0744   -9.1056 C.3       10 UNK         0.0237 
     61 CB         35.7471    0.3313   -9.2446 C.3       10 UNK        -0.1985 
     62 C          34.2900    1.7103   -7.7069 C.2       10 UNK         0.4970 
     63 O          34.8412    2.7914   -7.4962 O.2       10 UNK        -0.4914 
     64 N          33.5686    1.0493   -6.7915 N.am      11 UNK        -0.4285 
     65 CA         33.1852    1.5929   -5.4816 C.3       11 UNK         0.1007 
     66 C          32.0585    2.6699   -5.5215 C.2       11 UNK         0.5703 
     67 N          31.4413    2.9578   -6.6621 N.am      11 UNK        -0.7361 
     68 O          31.7574    3.2772   -4.4971 O.2       11 UNK        -0.4986 
     69 C69        32.9144    0.4694   -4.4464 C.3       12 UNK        -0.0947 
     70 S70        31.5684   -0.6874   -4.8884 S.3       12 UNK        -0.2240 
     71 C71        32.3164   -2.2685   -4.3725 C.3       12 UNK         0.0194 
     72 H72        22.5193   -4.1441   -2.0936 H         1 UNK         0.0906 
     73 H73        23.6755   -4.9602   -3.1528 H         1 UNK         0.0906 
     74 H74        23.4396   -5.5220   -1.4939 H         1 UNK         0.0906 
     75 H75        25.8386   -5.2622   -1.3123 H         1 UNK         0.3140 
     76 H76        26.5281   -2.8654    0.0194 H         1 UNK         0.1085 
     77 H77        28.8225   -3.9736    0.2585 H         1 UNK         0.0836 
     78 H78        27.4652   -4.8144    0.9132 H         1 UNK         0.0836 
     79 H79        30.5845   -5.1987   -0.6553 H         1 UNK         0.0731 
     80 H80        30.5484   -6.7077   -1.5249 H         1 UNK         0.0731 
     81 H81        31.6839   -3.6444   -2.0980 H         1 UNK         0.1312 
     82 H82        30.6878   -3.3724   -6.2575 H         1 UNK         0.1406 
     83 H83        28.7310   -6.2648   -3.7742 H         1 UNK         0.1631 
     84 H84        28.5676   -6.3799   -6.2534 H         1 UNK         0.0717 
     85 H85        29.2557   -5.1262   -7.2540 H         1 UNK         0.0717 
     86 H86        28.1737   -2.3850   -5.6273 H         1 UNK         0.0934 
     87 H87        28.5056   -2.7709   -7.3006 H         1 UNK         0.0934 
     88 H88        26.1117   -2.1815   -7.8836 H         1 UNK         0.0739 
     89 H89        25.8188   -1.9251   -5.0436 H         1 UNK         0.3093 
     90 H90        22.7575   -0.0452   -5.1679 H         1 UNK         0.0818 
     91 H91        22.1426   -2.0035   -3.7099 H         1 UNK         0.0819 
     92 H92        22.1026   -2.3973   -5.4220 H         1 UNK         0.0819 
     93 H93        23.4536   -2.9340   -4.4389 H         1 UNK         0.0819 
     94 H94        24.3705   -1.0001   -2.9912 H         1 UNK         0.3041 
     95 H95        26.0467    2.2149   -2.5876 H         1 UNK         0.0784 
     96 H96        24.0065    1.8026   -1.1829 H         1 UNK         0.0793 
     97 H97        24.5102    0.1365   -0.9267 H         1 UNK         0.0793 
     98 H98        25.4870    1.4609   -0.3024 H         1 UNK         0.0793 
     99 H99        26.5989   -0.6896   -2.7096 H         1 UNK         0.3024 
    100 H100       29.1916   -0.9234   -3.0879 H         1 UNK         0.1171 
    101 H101       30.8432    0.5821   -1.9737 H         1 UNK         0.0786 
    102 H102       31.1019   -1.0915   -1.5154 H         1 UNK         0.0786 
    103 H103       30.3167    0.0225   -0.3933 H         1 UNK         0.0786 
    104 H104       28.7061   -1.8040   -0.3249 H         1 UNK         0.2977 
    105 H105       26.9220    0.3970   -5.6292 H         1 UNK         0.3127 
    106 H106       29.1529    1.4787   -6.9170 H         1 UNK         0.0770 
    107 H107       27.1430    2.7913   -5.0117 H         1 UNK         0.0814 
    108 H108       28.7052    3.4719   -5.4330 H         1 UNK         0.0814 
    109 H109       28.6350    1.9526   -4.5703 H         1 UNK         0.0814 
    110 H110       25.9557    1.6792   -8.0480 H         1 UNK         0.2983 
    111 H111       26.1658    4.1538   -9.5527 H         1 UNK         0.0947 
    112 H112       24.1176    3.2676  -10.6830 H         1 UNK         0.0806 
    113 H113       23.9605    3.1784   -8.9367 H         1 UNK         0.0806 
    114 H114       24.3170    1.7226   -9.8666 H         1 UNK         0.0806 
    115 H115       27.4471    0.9295   -9.9839 H         1 UNK         0.3000 
    116 H116       28.2805    1.5843  -12.7841 H         1 UNK         0.0850 
    117 H117       27.8503   -0.8005  -13.3796 H         1 UNK         0.0810 
    118 H118       26.3669    0.0099  -12.9023 H         1 UNK         0.0810 
    119 H119       27.1691   -1.0917  -11.7833 H         1 UNK         0.0810 
    120 H120       28.9875   -0.2059   -9.7546 H         1 UNK         0.3040 
    121 H121       31.5181   -1.2440  -10.6862 H         1 UNK         0.0766 
    122 H122       31.7298   -1.9697   -8.2996 H         1 UNK         0.0812 
    123 H123       30.1476   -2.3743   -8.9371 H         1 UNK         0.0812 
    124 H124       30.3406   -0.9873   -7.8602 H         1 UNK         0.0812 
    125 H125       33.5765   -0.7843   -9.6871 H         1 UNK         0.3205 
    126 H126       34.3949    1.8926   -9.8287 H         1 UNK         0.0754 
    127 H127       36.5858    0.9906   -9.0158 H         1 UNK         0.0769 
    128 H128       35.8957   -0.0348  -10.2607 H         1 UNK         0.0769 
    129 H129       35.8086   -0.5208   -8.5663 H         1 UNK         0.0769 
    130 H130       33.1405    0.1728   -7.0460 H         1 UNK         0.2981 
    131 H131       34.0560    2.1332   -5.1052 H         1 UNK         0.0541 
    132 H132       31.6559    2.4643   -7.5234 H         1 UNK         0.3459 
    133 H133       30.7284    3.6687   -6.6707 H         1 UNK         0.3459 
    134 H134       32.6924    0.8975   -3.4680 H         1 UNK         0.0612 
    135 H135       33.8353   -0.0990   -4.3078 H         1 UNK         0.0612 
    136 H136       33.0553   -2.5729   -5.1149 H         1 UNK         0.0624 
    137 H137       32.8600   -2.1147   -3.4390 H         1 UNK         0.0624 
@<TRIPOS>BOND
     1    1    2 1    
     2    1   72 1    
     3    1   73 1    
     4    1   74 1    
     5    2    3 2    
     6    2    4 am   BACKBONE|DICT|INTERRES
     7    4    5 1    
     8    4   75 1    
     9    5    6 1    
    10    5   35 1    
    11    5   76 1    
    12    6    7 1    
    13    6   77 1    
    14    6   78 1    
    15    7    8 1    
    16    8    9 1    
    17    8   79 1    
    18    8   80 1    
    19    9   10 ar   
    20    9   14 ar   
    21   10   11 ar   
    22   10   81 1    
    23   11   12 ar   
    24   11   71 1    
    25   12   13 ar   
    26   12   82 1    
    27   13   14 ar   
    28   13   15 1    
    29   14   83 1    
    30   15   16 1    
    31   15   84 1    
    32   15   85 1    
    33   16   17 1    
    34   17   18 1    
    35   17   86 1    
    36   17   87 1    
    37   18   19 1    
    38   18   37 1    
    39   18   88 1    
    40   19   20 am   BACKBONE|DICT|INTERRES
    41   19   89 1    
    42   20   21 2    
    43   20   22 1    
    44   22   23 1    
    45   22   24 1    
    46   22   90 1    
    47   23   91 1    
    48   23   92 1    
    49   23   93 1    
    50   24   25 am   BACKBONE|DICT|INTERRES
    51   24   94 1    
    52   25   26 2    
    53   25   27 1    
    54   27   28 1    
    55   27   29 1    
    56   27   95 1    
    57   28   96 1    
    58   28   97 1    
    59   28   98 1    
    60   29   30 am   BACKBONE|DICT|INTERRES
    61   29   99 1    
    62   30   31 2    
    63   30   32 1    
    64   32   33 1    
    65   32   34 1    
    66   32  100 1    
    67   33  101 1    
    68   33  102 1    
    69   33  103 1    
    70   34   35 am   BACKBONE|DICT|INTERRES
    71   34  104 1    
    72   35   36 2    
    73   37   38 2    
    74   37   39 am   BACKBONE|DICT|INTERRES
    75   39   40 1    
    76   39  105 1    
    77   40   41 1    
    78   40   42 1    
    79   40  106 1    
    80   41  107 1    
    81   41  108 1    
    82   41  109 1    
    83   42   43 2    
    84   42   44 am   BACKBONE|DICT|INTERRES
    85   44   45 1    
    86   44  110 1    
    87   45   46 1    
    88   45   47 1    
    89   45  111 1    
    90   46  112 1    
    91   46  113 1    
    92   46  114 1    
    93   47   48 2    
    94   47   49 am   BACKBONE|DICT|INTERRES
    95   49   50 1    
    96   49  115 1    
    97   50   51 1    
    98   50   52 1    
    99   50  116 1    
   100   51  117 1    
   101   51  118 1    
   102   51  119 1    
   103   52   53 2    
   104   52   54 am   BACKBONE|DICT|INTERRES
   105   54   55 1    
   106   54  120 1    
   107   55   56 1    
   108   55   57 1    
   109   55  121 1    
   110   56  122 1    
   111   56  123 1    
   112   56  124 1    
   113   57   58 2    
   114   57   59 am   BACKBONE|DICT|INTERRES
   115   59   60 1    
   116   59  125 1    
   117   60   61 1    
   118   60   62 1    
   119   60  126 1    
   120   61  127 1    
   121   61  128 1    
   122   61  129 1    
   123   62   63 2    
   124   62   64 am   BACKBONE|DICT|INTERRES
   125   64   65 1    
   126   64  130 1    
   127   65   66 1    
   128   65   69 1    
   129   65  131 1    
   130   66   67 am   BACKBONE|DICT|INTERRES
   131   66   68 2    
   132   67  132 1    
   133   67  133 1    
   134   69   70 1    
   135   69  134 1    
   136   69  135 1    
   137   70   71 1    
   138   71  136 1    
   139   71  137 1    
@<TRIPOS>SUBSTRUCTURE
     1 UNK         1 GROUP             0       ****    0 ROOT    
