@<TRIPOS>MOLECULE
3R137
137   139    1
SMALL
USER_CHARGES


@<TRIPOS>ATOM
      1 CA         25.9328   -5.6493   -6.9004 C.3       0 UNK        -0.2020 
      2 C          25.7205   -5.3223   -5.4304 C.2       0 UNK         0.4855 
      3 O          24.6013   -5.0041   -5.0268 O.2       0 UNK        -0.5197 
      4 N          26.7946   -5.3929   -4.6349 N.am      1 UNK        -0.4892 
      5 CA         26.8688   -5.0857   -3.2009 C.3       1 UNK         0.0835 
      6 C6         28.2879   -5.3614   -2.6125 C.3       12 UNK        -0.0855 
      7 S7         29.6891   -5.1291   -3.7759 S.3       12 UNK        -0.2931 
      8 C8         31.0015   -4.4485   -2.7131 C.3       12 UNK         0.0378 
      9 C9         30.9444   -2.9302   -2.6469 C.ar      12 UNK        -0.0802 
     10 C10        31.5554   -2.1588   -3.6412 C.ar      12 UNK        -0.0944 
     11 C11        31.5056   -0.7602   -3.5915 C.ar      12 UNK        -0.0787 
     12 C12        30.8405   -0.1398   -2.5297 C.ar      12 UNK        -0.0862 
     13 C13        30.2053   -0.8994   -1.5434 C.ar      12 UNK        -0.0733 
     14 C14        30.2752   -2.2943   -1.5994 C.ar      12 UNK        -0.0832 
     15 C15        29.4218   -0.2269   -0.4256 C.3       12 UNK         0.0240 
     16 S16        27.6406   -0.5848   -0.5662 S.3       12 UNK        -0.2522 
     17 C17        26.9594    0.8978   -1.3824 C.3       12 UNK        -0.0967 
     18 CA         27.5511    1.2579   -2.7702 C.3       5 UNK         0.0660 
     19 N          27.5664    0.1453   -3.7321 N.am      5 UNK        -0.4015 
     20 C          28.1339    0.2286   -4.9467 C.2       4 UNK         0.4946 
     21 O          28.7877    1.2027   -5.3124 O.2       4 UNK        -0.5353 
     22 CA         27.8655   -0.9000   -5.9558 C.3       4 UNK         0.0277 
     23 CB         28.8908   -2.0366   -5.8379 C.3       4 UNK        -0.1981 
     24 N          26.5111   -1.4305   -5.8149 N.am      4 UNK        -0.4209 
     25 C          25.4141   -0.8023   -6.2619 C.2       3 UNK         0.4942 
     26 O          25.4469    0.2397   -6.9143 O.2       3 UNK        -0.5208 
     27 CA         24.0492   -1.4008   -5.8806 C.3       3 UNK         0.0250 
     28 CB         23.5468   -2.3567   -6.9727 C.3       3 UNK        -0.1990 
     29 N          24.0786   -2.0841   -4.5845 N.am      3 UNK        -0.4232 
     30 C          24.2220   -1.4404   -3.4155 C.2       2 UNK         0.4993 
     31 O          24.2640   -0.2135   -3.3199 O.2       2 UNK        -0.5286 
     32 CA         24.4106   -2.2975   -2.1502 C.3       2 UNK         0.0209 
     33 CB         23.0538   -2.5858   -1.4892 C.3       2 UNK        -0.1931 
     34 N          25.1176   -3.5613   -2.3894 N.am      2 UNK        -0.4546 
     35 C          26.3548   -3.6625   -2.8980 C.2       1 UNK         0.5154 
     36 O          27.0413   -2.6860   -3.1923 O.2       1 UNK        -0.5181 
     37 C          26.8287    2.4989   -3.3413 C.2       5 UNK         0.5014 
     38 O          27.2990    3.6197   -3.1398 O.2       5 UNK        -0.5248 
     39 N          25.7078    2.2742   -4.0417 N.am      6 UNK        -0.4434 
     40 CA         24.9065    3.3143   -4.6825 C.3       6 UNK         0.0363 
     41 CB         23.5066    2.7607   -4.9972 C.3       6 UNK        -0.1936 
     42 C          25.5544    3.9042   -5.9484 C.2       6 UNK         0.5081 
     43 O          25.6414    5.1280   -6.0556 O.2       6 UNK        -0.5248 
     44 N          25.9447    3.0446   -6.9009 N.am      7 UNK        -0.4718 
     45 CA         26.2567    3.4355   -8.2826 C.3       7 UNK         0.0273 
     46 CB         25.1843    2.8300   -9.2088 C.3       7 UNK        -0.1935 
     47 C          27.6740    3.0508   -8.7432 C.2       7 UNK         0.5018 
     48 O          27.9240    3.0474   -9.9506 O.2       7 UNK        -0.5186 
     49 N          28.5778    2.7296   -7.8071 N.am      8 UNK        -0.4240 
     50 CA         29.9743    2.3019   -7.9960 C.3       8 UNK         0.0235 
     51 CB         30.8142    3.3358   -8.7724 C.3       8 UNK        -0.2000 
     52 C          30.1026    0.8922   -8.5952 C.2       8 UNK         0.4941 
     53 O          30.7409    0.0394   -7.9804 O.2       8 UNK        -0.5273 
     54 N          29.4773    0.6615   -9.7579 N.am      9 UNK        -0.4262 
     55 CA         29.3929   -0.6010  -10.5007 C.3       9 UNK         0.0264 
     56 CB         28.3919   -1.5564   -9.8128 C.3       9 UNK        -0.1955 
     57 C          30.7744   -1.2392  -10.7524 C.2       9 UNK         0.5031 
     58 O          31.4349   -0.8829  -11.7293 O.2       9 UNK        -0.5390 
     59 N          31.1785   -2.1645   -9.8720 N.am      10 UNK        -0.4204 
     60 CA         32.4766   -2.8370   -9.8839 C.3       10 UNK         0.0237 
     61 CB         32.3908   -4.1022   -9.0139 C.3       10 UNK        -0.1985 
     62 C          33.6391   -1.9436   -9.4127 C.2       10 UNK         0.4970 
     63 O          34.7718   -2.1837   -9.8341 O.2       10 UNK        -0.4914 
     64 N          33.3644   -0.9572   -8.5477 N.am      11 UNK        -0.4285 
     65 CA         34.3627    0.0030   -8.0544 C.3       11 UNK         0.1007 
     66 C          34.7350    1.0532   -9.1354 C.2       11 UNK         0.5703 
     67 N          35.9815    1.5058   -9.1557 N.am      11 UNK        -0.7361 
     68 O          33.9009    1.4915   -9.9251 O.2       11 UNK        -0.4986 
     69 C69        33.9125    0.7004   -6.7442 C.3       12 UNK        -0.0947 
     70 S70        33.6800   -0.4695   -5.3619 S.3       12 UNK        -0.2240 
     71 C71        32.0747    0.1000   -4.7160 C.3       12 UNK         0.0194 
     72 H72        25.0687   -6.1805   -7.2987 H         1 UNK         0.0906 
     73 H73        26.0680   -4.7342   -7.4759 H         1 UNK         0.0906 
     74 H74        26.8105   -6.2782   -7.0485 H         1 UNK         0.0906 
     75 H75        27.6930   -5.6210   -5.0399 H         1 UNK         0.3140 
     76 H76        26.1847   -5.7779   -2.7055 H         1 UNK         0.1085 
     77 H77        28.3333   -6.4016   -2.2861 H         1 UNK         0.0836 
     78 H78        28.4577   -4.7761   -1.7070 H         1 UNK         0.0836 
     79 H79        31.9680   -4.7550   -3.1161 H         1 UNK         0.0731 
     80 H80        30.9402   -4.8853   -1.7151 H         1 UNK         0.0731 
     81 H81        32.0458   -2.6514   -4.4694 H         1 UNK         0.1312 
     82 H82        30.7865    0.9391   -2.4941 H         1 UNK         0.1406 
     83 H83        29.7825   -2.8828   -0.8379 H         1 UNK         0.1631 
     84 H84        29.5894    0.8510   -0.4107 H         1 UNK         0.0717 
     85 H85        29.7799   -0.6052    0.5327 H         1 UNK         0.0717 
     86 H86        25.8811    0.7497   -1.4577 H         1 UNK         0.0934 
     87 H87        27.0901    1.7368   -0.6958 H         1 UNK         0.0934 
     88 H88        28.5878    1.5568   -2.6188 H         1 UNK         0.0739 
     89 H89        27.1427   -0.7318   -3.4440 H         1 UNK         0.3093 
     90 H90        27.9584   -0.4713   -6.9552 H         1 UNK         0.0818 
     91 H91        28.9544   -2.4199   -4.8211 H         1 UNK         0.0819 
     92 H92        28.6477   -2.8707   -6.4954 H         1 UNK         0.0819 
     93 H93        29.8865   -1.6883   -6.1101 H         1 UNK         0.0819 
     94 H94        26.4078   -2.2279   -5.2005 H         1 UNK         0.3041 
     95 H95        23.3381   -0.5752   -5.8082 H         1 UNK         0.0784 
     96 H96        23.4599   -1.8404   -7.9298 H         1 UNK         0.0793 
     97 H97        24.2222   -3.1982   -7.1189 H         1 UNK         0.0793 
     98 H98        22.5620   -2.7556   -6.7289 H         1 UNK         0.0793 
     99 H99        24.0850   -3.1006   -4.5953 H         1 UNK         0.3024 
    100 H100       25.0128   -1.7121   -1.4531 H         1 UNK         0.1171 
    101 H101       23.1773   -3.1056   -0.5390 H         1 UNK         0.0786 
    102 H102       22.5169   -1.6589   -1.2816 H         1 UNK         0.0786 
    103 H103       22.4148   -3.1971   -2.1278 H         1 UNK         0.0786 
    104 H104       24.5910   -4.4079   -2.2270 H         1 UNK         0.2977 
    105 H105       25.3459    1.3262   -4.0815 H         1 UNK         0.3127 
    106 H106       24.7841    4.1295   -3.9659 H         1 UNK         0.0770 
    107 H107       23.5474    1.9279   -5.6995 H         1 UNK         0.0814 
    108 H108       22.8739    3.5303   -5.4413 H         1 UNK         0.0814 
    109 H109       23.0065    2.4104   -4.0939 H         1 UNK         0.0814 
    110 H110       25.8307    2.0437   -6.7442 H         1 UNK         0.2983 
    111 H111       26.2043    4.5208   -8.3898 H         1 UNK         0.0947 
    112 H112       25.3129    3.1657  -10.2387 H         1 UNK         0.0806 
    113 H113       24.1813    3.1244   -8.8998 H         1 UNK         0.0806 
    114 H114       25.2269    1.7402   -9.2125 H         1 UNK         0.0806 
    115 H115       28.2583    2.6769   -6.8462 H         1 UNK         0.3000 
    116 H116       30.4027    2.2501   -6.9943 H         1 UNK         0.0850 
    117 H117       31.8654    3.0454   -8.7829 H         1 UNK         0.0810 
    118 H118       30.7552    4.3210   -8.3101 H         1 UNK         0.0810 
    119 H119       30.5000    3.4327   -9.8115 H         1 UNK         0.0810 
    120 H120       28.9746    1.4500  -10.1580 H         1 UNK         0.3040 
    121 H121       28.9846   -0.3520  -11.4814 H         1 UNK         0.0766 
    122 H122       27.3992   -1.1087   -9.7584 H         1 UNK         0.0812 
    123 H123       28.6893   -1.8100   -8.7963 H         1 UNK         0.0812 
    124 H124       28.2935   -2.4889  -10.3703 H         1 UNK         0.0812 
    125 H125       30.5858   -2.3368   -9.0733 H         1 UNK         0.3205 
    126 H126       32.6923   -3.1421  -10.9102 H         1 UNK         0.0754 
    127 H127       33.3356   -4.6476   -9.0240 H         1 UNK         0.0769 
    128 H128       31.6216   -4.7836   -9.3780 H         1 UNK         0.0769 
    129 H129       32.1640   -3.8628   -7.9738 H         1 UNK         0.0769 
    130 H130       32.3992   -0.7634   -8.2912 H         1 UNK         0.2981 
    131 H131       35.2689   -0.5612   -7.8240 H         1 UNK         0.0541 
    132 H132       36.6721    1.1642   -8.5054 H         1 UNK         0.3459 
    133 H133       36.2384    2.1995   -9.8404 H         1 UNK         0.3459 
    134 H134       34.6589    1.4297   -6.4242 H         1 UNK         0.0612 
    135 H135       32.9935    1.2640   -6.9143 H         1 UNK         0.0612 
    136 H136       31.3476    0.1164   -5.5248 H         1 UNK         0.0624 
    137 H137       32.1889    1.1332   -4.3846 H         1 UNK         0.0624 
@<TRIPOS>BOND
     1    1    2 1    
     2    1   72 1    
     3    1   73 1    
     4    1   74 1    
     5    2    3 2    
     6    2    4 am   BACKBONE|DICT|INTERRES
     7    4    5 1    
     8    4   75 1    
     9    5    6 1    
    10    5   35 1    
    11    5   76 1    
    12    6    7 1    
    13    6   77 1    
    14    6   78 1    
    15    7    8 1    
    16    8    9 1    
    17    8   79 1    
    18    8   80 1    
    19    9   10 ar   
    20    9   14 ar   
    21   10   11 ar   
    22   10   81 1    
    23   11   12 ar   
    24   11   71 1    
    25   12   13 ar   
    26   12   82 1    
    27   13   14 ar   
    28   13   15 1    
    29   14   83 1    
    30   15   16 1    
    31   15   84 1    
    32   15   85 1    
    33   16   17 1    
    34   17   18 1    
    35   17   86 1    
    36   17   87 1    
    37   18   19 1    
    38   18   37 1    
    39   18   88 1    
    40   19   20 am   BACKBONE|DICT|INTERRES
    41   19   89 1    
    42   20   21 2    
    43   20   22 1    
    44   22   23 1    
    45   22   24 1    
    46   22   90 1    
    47   23   91 1    
    48   23   92 1    
    49   23   93 1    
    50   24   25 am   BACKBONE|DICT|INTERRES
    51   24   94 1    
    52   25   26 2    
    53   25   27 1    
    54   27   28 1    
    55   27   29 1    
    56   27   95 1    
    57   28   96 1    
    58   28   97 1    
    59   28   98 1    
    60   29   30 am   BACKBONE|DICT|INTERRES
    61   29   99 1    
    62   30   31 2    
    63   30   32 1    
    64   32   33 1    
    65   32   34 1    
    66   32  100 1    
    67   33  101 1    
    68   33  102 1    
    69   33  103 1    
    70   34   35 am   BACKBONE|DICT|INTERRES
    71   34  104 1    
    72   35   36 2    
    73   37   38 2    
    74   37   39 am   BACKBONE|DICT|INTERRES
    75   39   40 1    
    76   39  105 1    
    77   40   41 1    
    78   40   42 1    
    79   40  106 1    
    80   41  107 1    
    81   41  108 1    
    82   41  109 1    
    83   42   43 2    
    84   42   44 am   BACKBONE|DICT|INTERRES
    85   44   45 1    
    86   44  110 1    
    87   45   46 1    
    88   45   47 1    
    89   45  111 1    
    90   46  112 1    
    91   46  113 1    
    92   46  114 1    
    93   47   48 2    
    94   47   49 am   BACKBONE|DICT|INTERRES
    95   49   50 1    
    96   49  115 1    
    97   50   51 1    
    98   50   52 1    
    99   50  116 1    
   100   51  117 1    
   101   51  118 1    
   102   51  119 1    
   103   52   53 2    
   104   52   54 am   BACKBONE|DICT|INTERRES
   105   54   55 1    
   106   54  120 1    
   107   55   56 1    
   108   55   57 1    
   109   55  121 1    
   110   56  122 1    
   111   56  123 1    
   112   56  124 1    
   113   57   58 2    
   114   57   59 am   BACKBONE|DICT|INTERRES
   115   59   60 1    
   116   59  125 1    
   117   60   61 1    
   118   60   62 1    
   119   60  126 1    
   120   61  127 1    
   121   61  128 1    
   122   61  129 1    
   123   62   63 2    
   124   62   64 am   BACKBONE|DICT|INTERRES
   125   64   65 1    
   126   64  130 1    
   127   65   66 1    
   128   65   69 1    
   129   65  131 1    
   130   66   67 am   BACKBONE|DICT|INTERRES
   131   66   68 2    
   132   67  132 1    
   133   67  133 1    
   134   69   70 1    
   135   69  134 1    
   136   69  135 1    
   137   70   71 1    
   138   71  136 1    
   139   71  137 1    
@<TRIPOS>SUBSTRUCTURE
     1 UNK         1 GROUP             0       ****    0 ROOT    
