@<TRIPOS>MOLECULE
3R137
137   139    1
SMALL
USER_CHARGES


@<TRIPOS>ATOM
      1 CA         25.4452   -5.8065   -5.7443 C.3       0 UNK        -0.2020 
      2 C          25.6873   -5.2972   -4.3320 C.2       0 UNK         0.4855 
      3 O          24.7515   -4.8318   -3.6804 O.2       0 UNK        -0.5197 
      4 N          26.9367   -5.3687   -3.8527 N.am      1 UNK        -0.4892 
      5 CA         27.3530   -4.8794   -2.5343 C.3       1 UNK         0.0835 
      6 C6         28.8024   -5.3040   -2.2039 C.3       12 UNK        -0.0855 
      7 S7         29.1664   -5.1243   -0.4248 S.3       12 UNK        -0.2931 
      8 C8         30.9513   -4.7574   -0.4429 C.3       12 UNK         0.0378 
      9 C9         31.3028   -3.4715   -1.1841 C.ar      12 UNK        -0.0802 
     10 C10        32.2710   -3.4949   -2.1932 C.ar      12 UNK        -0.0944 
     11 C11        32.6418   -2.3191   -2.8512 C.ar      12 UNK        -0.0787 
     12 C12        32.0480   -1.1104   -2.4816 C.ar      12 UNK        -0.0862 
     13 C13        31.0540   -1.0738   -1.4984 C.ar      12 UNK        -0.0733 
     14 C14        30.6910   -2.2580   -0.8483 C.ar      12 UNK        -0.0832 
     15 C15        30.3934    0.2453   -1.1157 C.3       12 UNK         0.0240 
     16 S16        28.9446    0.6262   -2.1557 S.3       12 UNK        -0.2522 
     17 C17        29.7463    1.2907   -3.6504 C.3       12 UNK        -0.0967 
     18 CA         28.8862    1.2744   -4.9322 C.3       5 UNK         0.0660 
     19 N          28.2742   -0.0255   -5.2254 N.am      5 UNK        -0.4015 
     20 C          28.0516   -0.4649   -6.4726 C.2       4 UNK         0.4946 
     21 O          28.4135    0.1367   -7.4843 O.2       4 UNK        -0.5353 
     22 CA         27.2504   -1.7642   -6.6328 C.3       4 UNK         0.0277 
     23 CB         28.1577   -2.9997   -6.5286 C.3       4 UNK        -0.1981 
     24 N          26.1482   -1.8547   -5.6765 N.am      4 UNK        -0.4209 
     25 C          25.0211   -1.1331   -5.7723 C.2       3 UNK         0.4942 
     26 O          24.8152   -0.3142   -6.6675 O.2       3 UNK        -0.5208 
     27 CA         23.9525   -1.3313   -4.6837 C.3       3 UNK         0.0250 
     28 CB         22.9016   -2.3560   -5.1379 C.3       3 UNK        -0.1990 
     29 N          24.5221   -1.7340   -3.3965 N.am      3 UNK        -0.4232 
     30 C          25.2430   -0.9130   -2.6169 C.2       2 UNK         0.4993 
     31 O          25.4548    0.2674   -2.8912 O.2       2 UNK        -0.5286 
     32 CA         25.8783   -1.5174   -1.3514 C.3       2 UNK         0.0209 
     33 CB         24.9174   -1.4017   -0.1579 C.3       2 UNK        -0.1931 
     34 N          26.2947   -2.9141   -1.5116 N.am      2 UNK        -0.4546 
     35 C          27.1543   -3.3525   -2.4422 C.2       1 UNK         0.5154 
     36 O          27.7207   -2.6156   -3.2523 O.2       1 UNK        -0.5181 
     37 C          27.8944    2.4499   -5.0227 C.2       5 UNK         0.5014 
     38 O          28.3430    3.5707   -5.2661 O.2       5 UNK        -0.5248 
     39 N          26.5797    2.1990   -4.9087 N.am      6 UNK        -0.4434 
     40 CA         25.5411    3.1721   -5.2718 C.3       6 UNK         0.0363 
     41 CB         24.1636    2.7057   -4.7778 C.3       6 UNK        -0.1936 
     42 C          25.5155    3.4423   -6.7880 C.2       6 UNK         0.5081 
     43 O          25.3895    4.5978   -7.1936 O.2       6 UNK        -0.5248 
     44 N          25.6796    2.3827   -7.5960 N.am      7 UNK        -0.4718 
     45 CA         25.8853    2.4674   -9.0467 C.3       7 UNK         0.0273 
     46 CB         25.6937    1.0753   -9.6701 C.3       7 UNK        -0.1935 
     47 C          27.2641    3.0407   -9.4270 C.2       7 UNK         0.5018 
     48 O          27.4085    3.5892  -10.5198 O.2       7 UNK        -0.5186 
     49 N          28.2499    2.8845   -8.5318 N.am      8 UNK        -0.4240 
     50 CA         29.6365    3.3726   -8.5520 C.3       8 UNK         0.0235 
     51 CB         29.6924    4.9083   -8.6584 C.3       8 UNK        -0.2000 
     52 C          30.5416    2.7075   -9.6011 C.2       8 UNK         0.4941 
     53 O          31.7112    2.4576   -9.3122 O.2       8 UNK        -0.5273 
     54 N          30.0014    2.4146  -10.7889 N.am      9 UNK        -0.4262 
     55 CA         30.6997    1.7251  -11.8750 C.3       9 UNK         0.0264 
     56 CB         29.8853    1.8735  -13.1703 C.3       9 UNK        -0.1955 
     57 C          30.9702    0.2392  -11.5780 C.2       9 UNK         0.5031 
     58 O          31.9387   -0.3099  -12.1054 O.2       9 UNK        -0.5390 
     59 N          30.1079   -0.3883  -10.7658 N.am      10 UNK        -0.4204 
     60 CA         30.1722   -1.8144  -10.4439 C.3       10 UNK         0.0237 
     61 CB         28.7558   -2.3320  -10.1539 C.3       10 UNK        -0.1985 
     62 C          31.1446   -2.1463   -9.2980 C.2       10 UNK         0.4970 
     63 O          31.6840   -3.2533   -9.2936 O.2       10 UNK        -0.4914 
     64 N          31.3720   -1.2109   -8.3662 N.am      11 UNK        -0.4285 
     65 CA         32.3556   -1.3451   -7.2835 C.3       11 UNK         0.1007 
     66 C          32.8007    0.0522   -6.7929 C.2       11 UNK         0.5703 
     67 N          34.0996    0.3049   -6.7080 N.am      11 UNK        -0.7361 
     68 O          31.9756    0.8942   -6.4514 O.2       11 UNK        -0.4986 
     69 C69        31.8510   -2.2395   -6.1128 C.3       12 UNK        -0.0947 
     70 S70        33.1763   -3.2808   -5.4136 S.3       12 UNK        -0.2240 
     71 C71        33.7045   -2.3466   -3.9412 C.3       12 UNK         0.0194 
     72 H72        24.6549   -6.5567   -5.7412 H         1 UNK         0.0906 
     73 H73        25.1335   -4.9862   -6.3903 H         1 UNK         0.0906 
     74 H74        26.3386   -6.2585   -6.1745 H         1 UNK         0.0906 
     75 H75        27.6731   -5.7402   -4.4356 H         1 UNK         0.3140 
     76 H76        26.6924   -5.3588   -1.8078 H         1 UNK         0.1085 
     77 H77        29.5170   -4.7402   -2.8068 H         1 UNK         0.0836 
     78 H78        28.9544   -6.3540   -2.4592 H         1 UNK         0.0836 
     79 H79        31.4758   -5.6112   -0.8750 H         1 UNK         0.0731 
     80 H80        31.3015   -4.6729    0.5866 H         1 UNK         0.0731 
     81 H81        32.7461   -4.4273   -2.4665 H         1 UNK         0.1312 
     82 H82        32.3664   -0.1974   -2.9633 H         1 UNK         0.1406 
     83 H83        29.9343   -2.2366   -0.0757 H         1 UNK         0.1631 
     84 H84        31.1139    1.0625   -1.1754 H         1 UNK         0.0717 
     85 H85        30.0699    0.2062   -0.0744 H         1 UNK         0.0717 
     86 H86        30.1135    2.2968   -3.4377 H         1 UNK         0.0934 
     87 H87        30.6337    0.7010   -3.8615 H         1 UNK         0.0934 
     88 H88        29.5929    1.4763   -5.7384 H         1 UNK         0.0739 
     89 H89        27.9898   -0.5893   -4.4326 H         1 UNK         0.3093 
     90 H90        26.8104   -1.7590   -7.6318 H         1 UNK         0.0818 
     91 H91        28.6790   -3.0509   -5.5731 H         1 UNK         0.0819 
     92 H92        28.9190   -2.9842   -7.3070 H         1 UNK         0.0819 
     93 H93        27.5919   -3.9214   -6.6563 H         1 UNK         0.0819 
     94 H94        26.3008   -2.4307   -4.8580 H         1 UNK         0.3041 
     95 H95        23.4425   -0.3774   -4.5394 H         1 UNK         0.0784 
     96 H96        22.4072   -2.0233   -6.0517 H         1 UNK         0.0793 
     97 H97        23.3441   -3.3295   -5.3474 H         1 UNK         0.0793 
     98 H98        22.1273   -2.4938   -4.3831 H         1 UNK         0.0793 
     99 H99        24.4296   -2.7101   -3.1377 H         1 UNK         0.3024 
    100 H100       26.7722   -0.9345   -1.1261 H         1 UNK         0.1171 
    101 H101       25.3893   -1.7366    0.7660 H         1 UNK         0.0786 
    102 H102       24.6103   -0.3659   -0.0050 H         1 UNK         0.0786 
    103 H103       24.0123   -1.9916   -0.3079 H         1 UNK         0.0786 
    104 H104       25.8575   -3.5874   -0.8987 H         1 UNK         0.2977 
    105 H105       26.2693    1.2899   -4.5853 H         1 UNK         0.3127 
    106 H106       25.7743    4.1133   -4.7690 H         1 UNK         0.0770 
    107 H107       23.8403    1.7957   -5.2806 H         1 UNK         0.0814 
    108 H108       23.4066    3.4665   -4.9720 H         1 UNK         0.0814 
    109 H109       24.1660    2.5190   -3.7040 H         1 UNK         0.0814 
    110 H110       25.6729    1.4514   -7.1908 H         1 UNK         0.2983 
    111 H111       25.1279    3.1368   -9.4605 H         1 UNK         0.0947 
    112 H112       25.8103    1.1119  -10.7540 H         1 UNK         0.0806 
    113 H113       24.6973    0.6837   -9.4642 H         1 UNK         0.0806 
    114 H114       26.4182    0.3560   -9.2874 H         1 UNK         0.0806 
    115 H115       28.0287    2.2972   -7.7378 H         1 UNK         0.3000 
    116 H116       30.0510    3.1000   -7.5800 H         1 UNK         0.0850 
    117 H117       30.7187    5.2665   -8.5674 H         1 UNK         0.0810 
    118 H118       29.1131    5.3783   -7.8633 H         1 UNK         0.0810 
    119 H119       29.3074    5.2675   -9.6131 H         1 UNK         0.0810 
    120 H120       29.0435    2.7143  -10.9531 H         1 UNK         0.3040 
    121 H121       31.6661    2.2127  -12.0207 H         1 UNK         0.0766 
    122 H122       29.7524    2.9221  -13.4373 H         1 UNK         0.0812 
    123 H123       28.8962    1.4223  -13.0802 H         1 UNK         0.0812 
    124 H124       30.3905    1.3888  -14.0070 H         1 UNK         0.0812 
    125 H125       29.3523    0.1434  -10.3582 H         1 UNK         0.3205 
    126 H126       30.5343   -2.3520  -11.3234 H         1 UNK         0.0754 
    127 H127       28.7715   -3.3728   -9.8271 H         1 UNK         0.0769 
    128 H128       28.1304   -2.2834  -11.0454 H         1 UNK         0.0769 
    129 H129       28.2686   -1.7457   -9.3788 H         1 UNK         0.0769 
    130 H130       30.8980   -0.3184   -8.4118 H         1 UNK         0.2981 
    131 H131       33.2312   -1.8196   -7.7325 H         1 UNK         0.0541 
    132 H132       34.7859   -0.3840   -6.9730 H         1 UNK         0.3459 
    133 H133       34.3978    1.2106   -6.3825 H         1 UNK         0.3459 
    134 H134       31.3537   -1.6617   -5.3312 H         1 UNK         0.0612 
    135 H135       31.0991   -2.9407   -6.4720 H         1 UNK         0.0612 
    136 H136       33.9875   -1.3365   -4.2403 H         1 UNK         0.0624 
    137 H137       34.6072   -2.8098   -3.5410 H         1 UNK         0.0624 
@<TRIPOS>BOND
     1    1    2 1    
     2    1   72 1    
     3    1   73 1    
     4    1   74 1    
     5    2    3 2    
     6    2    4 am   BACKBONE|DICT|INTERRES
     7    4    5 1    
     8    4   75 1    
     9    5    6 1    
    10    5   35 1    
    11    5   76 1    
    12    6    7 1    
    13    6   77 1    
    14    6   78 1    
    15    7    8 1    
    16    8    9 1    
    17    8   79 1    
    18    8   80 1    
    19    9   10 ar   
    20    9   14 ar   
    21   10   11 ar   
    22   10   81 1    
    23   11   12 ar   
    24   11   71 1    
    25   12   13 ar   
    26   12   82 1    
    27   13   14 ar   
    28   13   15 1    
    29   14   83 1    
    30   15   16 1    
    31   15   84 1    
    32   15   85 1    
    33   16   17 1    
    34   17   18 1    
    35   17   86 1    
    36   17   87 1    
    37   18   19 1    
    38   18   37 1    
    39   18   88 1    
    40   19   20 am   BACKBONE|DICT|INTERRES
    41   19   89 1    
    42   20   21 2    
    43   20   22 1    
    44   22   23 1    
    45   22   24 1    
    46   22   90 1    
    47   23   91 1    
    48   23   92 1    
    49   23   93 1    
    50   24   25 am   BACKBONE|DICT|INTERRES
    51   24   94 1    
    52   25   26 2    
    53   25   27 1    
    54   27   28 1    
    55   27   29 1    
    56   27   95 1    
    57   28   96 1    
    58   28   97 1    
    59   28   98 1    
    60   29   30 am   BACKBONE|DICT|INTERRES
    61   29   99 1    
    62   30   31 2    
    63   30   32 1    
    64   32   33 1    
    65   32   34 1    
    66   32  100 1    
    67   33  101 1    
    68   33  102 1    
    69   33  103 1    
    70   34   35 am   BACKBONE|DICT|INTERRES
    71   34  104 1    
    72   35   36 2    
    73   37   38 2    
    74   37   39 am   BACKBONE|DICT|INTERRES
    75   39   40 1    
    76   39  105 1    
    77   40   41 1    
    78   40   42 1    
    79   40  106 1    
    80   41  107 1    
    81   41  108 1    
    82   41  109 1    
    83   42   43 2    
    84   42   44 am   BACKBONE|DICT|INTERRES
    85   44   45 1    
    86   44  110 1    
    87   45   46 1    
    88   45   47 1    
    89   45  111 1    
    90   46  112 1    
    91   46  113 1    
    92   46  114 1    
    93   47   48 2    
    94   47   49 am   BACKBONE|DICT|INTERRES
    95   49   50 1    
    96   49  115 1    
    97   50   51 1    
    98   50   52 1    
    99   50  116 1    
   100   51  117 1    
   101   51  118 1    
   102   51  119 1    
   103   52   53 2    
   104   52   54 am   BACKBONE|DICT|INTERRES
   105   54   55 1    
   106   54  120 1    
   107   55   56 1    
   108   55   57 1    
   109   55  121 1    
   110   56  122 1    
   111   56  123 1    
   112   56  124 1    
   113   57   58 2    
   114   57   59 am   BACKBONE|DICT|INTERRES
   115   59   60 1    
   116   59  125 1    
   117   60   61 1    
   118   60   62 1    
   119   60  126 1    
   120   61  127 1    
   121   61  128 1    
   122   61  129 1    
   123   62   63 2    
   124   62   64 am   BACKBONE|DICT|INTERRES
   125   64   65 1    
   126   64  130 1    
   127   65   66 1    
   128   65   69 1    
   129   65  131 1    
   130   66   67 am   BACKBONE|DICT|INTERRES
   131   66   68 2    
   132   67  132 1    
   133   67  133 1    
   134   69   70 1    
   135   69  134 1    
   136   69  135 1    
   137   70   71 1    
   138   71  136 1    
   139   71  137 1    
@<TRIPOS>SUBSTRUCTURE
     1 UNK         1 GROUP             0       ****    0 ROOT    
