@<TRIPOS>MOLECULE
3R137
137   139    1
SMALL
USER_CHARGES


@<TRIPOS>ATOM
      1 CA         25.8809   -4.9490   -3.2644 C.3       0 UNK        -0.2020 
      2 C          26.3031   -4.6379   -1.8370 C.2       0 UNK         0.4855 
      3 O          26.4280   -5.5545   -1.0256 O.2       0 UNK        -0.5197 
      4 N          26.4824   -3.3517   -1.5103 N.am      1 UNK        -0.4892 
      5 CA         26.7977   -2.8664   -0.1586 C.3       1 UNK         0.0835 
      6 C6         27.9094   -1.7835   -0.1571 C.3       12 UNK        -0.0855 
      7 S7         29.4728   -2.3915   -0.8827 S.3       12 UNK        -0.2931 
      8 C8         29.6294   -1.3222   -2.3478 C.3       12 UNK         0.0378 
      9 C9         30.2369   -2.0682   -3.5253 C.ar      12 UNK        -0.0802 
     10 C10        31.5568   -1.8354   -3.9245 C.ar      12 UNK        -0.0944 
     11 C11        32.0906   -2.5089   -5.0286 C.ar      12 UNK        -0.0787 
     12 C12        31.2860   -3.4008   -5.7471 C.ar      12 UNK        -0.0862 
     13 C13        29.9687   -3.6511   -5.3485 C.ar      12 UNK        -0.0733 
     14 C14        29.4581   -2.9891   -4.2287 C.ar      12 UNK        -0.0832 
     15 C15        29.1201   -4.6773   -6.0902 C.3       12 UNK         0.0240 
     16 S16        28.1420   -3.9518   -7.4477 S.3       12 UNK        -0.2522 
     17 C17        26.8255   -3.0365   -6.5589 C.3       12 UNK        -0.0967 
     18 CA         26.6503   -1.5265   -6.8945 C.3       5 UNK         0.0660 
     19 N          25.8557   -0.8432   -5.8621 N.am      5 UNK        -0.4015 
     20 C          25.3774    0.4066   -5.9385 C.2       4 UNK         0.4946 
     21 O          25.5213    1.1247   -6.9298 O.2       4 UNK        -0.5353 
     22 CA         24.6642    0.9566   -4.6850 C.3       4 UNK         0.0277 
     23 CB         24.0260    2.3370   -4.9326 C.3       4 UNK        -0.1981 
     24 N          23.6450    0.0534   -4.1390 N.am      4 UNK        -0.4209 
     25 C          23.8808   -1.0539   -3.4255 C.2       3 UNK         0.4942 
     26 O          25.0115   -1.5111   -3.2186 O.2       3 UNK        -0.5208 
     27 CA         22.6499   -1.7979   -2.8949 C.3       3 UNK         0.0250 
     28 CB         22.2025   -2.8724   -3.8994 C.3       3 UNK        -0.1990 
     29 N          23.0103   -2.4407   -1.6359 N.am      3 UNK        -0.4232 
     30 C          22.4128   -2.2615   -0.4505 C.2       2 UNK         0.4993 
     31 O          21.3850   -1.6021   -0.2908 O.2       2 UNK        -0.5286 
     32 CA         23.0799   -2.9268    0.7716 C.3       2 UNK         0.0209 
     33 CB         22.3204   -4.2021    1.1724 C.3       2 UNK        -0.1931 
     34 N          24.4870   -3.2634    0.5275 N.am      2 UNK        -0.4546 
     35 C          25.4820   -2.3661    0.4681 C.2       1 UNK         0.5154 
     36 O          25.3511   -1.1861    0.7983 O.2       1 UNK        -0.5181 
     37 C          27.9646   -0.7717   -7.2046 C.2       5 UNK         0.5014 
     38 O          28.4007   -0.7748   -8.3560 O.2       5 UNK        -0.5248 
     39 N          28.5180   -0.0629   -6.2076 N.am      6 UNK        -0.4434 
     40 CA         29.6858    0.8139   -6.3254 C.3       6 UNK         0.0363 
     41 CB         29.9454    1.5037   -4.9765 C.3       6 UNK        -0.1936 
     42 C          29.5839    1.8796   -7.4302 C.2       6 UNK         0.5081 
     43 O          30.6137    2.2371   -7.9998 O.2       6 UNK        -0.5248 
     44 N          28.3660    2.3538   -7.7305 N.am      7 UNK        -0.4718 
     45 CA         28.1075    3.3161   -8.8043 C.3       7 UNK         0.0273 
     46 CB         26.7188    3.9429   -8.6026 C.3       7 UNK        -0.1935 
     47 C          28.2205    2.6946  -10.2078 C.2       7 UNK         0.5018 
     48 O          28.5883    3.4006  -11.1470 O.2       7 UNK        -0.5186 
     49 N          27.9119    1.3961  -10.3275 N.am      8 UNK        -0.4240 
     50 CA         28.0228    0.6271  -11.5681 C.3       8 UNK         0.0235 
     51 CB         26.9607   -0.4852  -11.5797 C.3       8 UNK        -0.2000 
     52 C          29.4307    0.0365  -11.7299 C.2       8 UNK         0.4941 
     53 O          29.9867    0.0822  -12.8273 O.2       8 UNK        -0.5273 
     54 N          29.9855   -0.4928  -10.6310 N.am      9 UNK        -0.4262 
     55 CA         31.3205   -1.0902  -10.5588 C.3       9 UNK         0.0264 
     56 CB         31.3947   -1.9676   -9.2981 C.3       9 UNK        -0.1955 
     57 C          32.4685   -0.0617  -10.5796 C.2       9 UNK         0.5031 
     58 O          33.6129   -0.4586  -10.8039 O.2       9 UNK        -0.5390 
     59 N          32.1490    1.2214  -10.3477 N.am      10 UNK        -0.4204 
     60 CA         33.0561    2.3713  -10.2413 C.3       10 UNK         0.0237 
     61 CB         33.7947    2.6336  -11.5717 C.3       10 UNK        -0.1985 
     62 C          33.9970    2.2602   -9.0258 C.2       10 UNK         0.4970 
     63 O          35.1901    2.5509   -9.1341 O.2       10 UNK        -0.4914 
     64 N          33.4277    1.8438   -7.8892 N.am      11 UNK        -0.4285 
     65 CA         34.1150    1.7055   -6.5957 C.3       11 UNK         0.1007 
     66 C          34.0534    2.9942   -5.7274 C.2       11 UNK         0.5703 
     67 N          33.2662    4.0029   -6.0853 N.am      11 UNK        -0.7361 
     68 O          34.7431    3.0853   -4.7148 O.2       11 UNK        -0.4986 
     69 C69        33.6076    0.4753   -5.7973 C.3       12 UNK        -0.0947 
     70 S70        33.7684   -1.0817   -6.7297 S.3       12 UNK        -0.2240 
     71 C71        33.5511   -2.3183   -5.4157 C.3       12 UNK         0.0194 
     72 H72        26.6875   -5.4552   -3.7922 H         1 UNK         0.0906 
     73 H73        25.0128   -5.6078   -3.2625 H         1 UNK         0.0906 
     74 H74        25.6136   -4.0504   -3.8168 H         1 UNK         0.0906 
     75 H75        26.2703   -2.6264   -2.1907 H         1 UNK         0.3140 
     76 H76        27.1504   -3.6890    0.4680 H         1 UNK         0.1085 
     77 H77        27.5746   -0.8846   -0.6778 H         1 UNK         0.0836 
     78 H78        28.1233   -1.4698    0.8664 H         1 UNK         0.0836 
     79 H79        28.6525   -0.9434   -2.6513 H         1 UNK         0.0731 
     80 H80        30.2295   -0.4499   -2.0849 H         1 UNK         0.0731 
     81 H81        32.1720   -1.1390   -3.3715 H         1 UNK         0.1312 
     82 H82        31.6957   -3.9209   -6.6023 H         1 UNK         0.1406 
     83 H83        28.4561   -3.1945   -3.8834 H         1 UNK         0.1631 
     84 H84        28.4561   -5.1949   -5.3975 H         1 UNK         0.0717 
     85 H85        29.7678   -5.4484   -6.5100 H         1 UNK         0.0717 
     86 H86        26.9914   -3.1524   -5.4922 H         1 UNK         0.0934 
     87 H87        25.8835   -3.5530   -6.7498 H         1 UNK         0.0934 
     88 H88        26.0670   -1.4743   -7.8165 H         1 UNK         0.0739 
     89 H89        25.6864   -1.3416   -4.9933 H         1 UNK         0.3093 
     90 H90        25.4376    1.0883   -3.9249 H         1 UNK         0.0818 
     91 H91        23.5803    2.7389   -4.0226 H         1 UNK         0.0819 
     92 H92        24.7705    3.0599   -5.2695 H         1 UNK         0.0819 
     93 H93        23.2489    2.2905   -5.6967 H         1 UNK         0.0819 
     94 H94        22.6850    0.3209   -4.3052 H         1 UNK         0.3041 
     95 H95        21.8394   -1.0817   -2.7429 H         1 UNK         0.0784 
     96 H96        21.9213   -2.4255   -4.8540 H         1 UNK         0.0793 
     97 H97        22.9926   -3.5977   -4.0980 H         1 UNK         0.0793 
     98 H98        21.3343   -3.4188   -3.5303 H         1 UNK         0.0793 
     99 H99        23.8883   -2.9380   -1.6494 H         1 UNK         0.3024 
    100 H100       23.0273   -2.2161    1.6000 H         1 UNK         0.1171 
    101 H101       22.7457   -4.6517    2.0699 H         1 UNK         0.0786 
    102 H102       22.3390   -4.9508    0.3793 H         1 UNK         0.0786 
    103 H103       21.2738   -3.9813    1.3876 H         1 UNK         0.0786 
    104 H104       24.6885   -4.2158    0.2522 H         1 UNK         0.2977 
    105 H105       28.0866   -0.1135   -5.2980 H         1 UNK         0.3127 
    106 H106       30.5379    0.1764   -6.5667 H         1 UNK         0.0770 
    107 H107       29.0756    2.0667   -4.6359 H         1 UNK         0.0814 
    108 H108       30.7766    2.2071   -5.0463 H         1 UNK         0.0814 
    109 H109       30.2049    0.7833   -4.2042 H         1 UNK         0.0814 
    110 H110       27.5568    1.9854   -7.2440 H         1 UNK         0.2983 
    111 H111       28.8529    4.1120   -8.7374 H         1 UNK         0.0947 
    112 H112       26.5186    4.6996   -9.3624 H         1 UNK         0.0806 
    113 H113       26.6400    4.4307   -7.6309 H         1 UNK         0.0806 
    114 H114       25.9253    3.1974   -8.6685 H         1 UNK         0.0806 
    115 H115       27.6848    0.8744   -9.4893 H         1 UNK         0.3000 
    116 H116       27.8324    1.2835  -12.4203 H         1 UNK         0.0850 
    117 H117       27.0126   -1.0628  -12.5036 H         1 UNK         0.0810 
    118 H118       25.9545   -0.0713  -11.5126 H         1 UNK         0.0810 
    119 H119       27.0909   -1.1832  -10.7516 H         1 UNK         0.0810 
    120 H120       29.4253   -0.5389   -9.7790 H         1 UNK         0.3040 
    121 H121       31.4512   -1.7358  -11.4297 H         1 UNK         0.0766 
    122 H122       32.3678   -2.4527   -9.2121 H         1 UNK         0.0812 
    123 H123       31.2392   -1.3821   -8.3914 H         1 UNK         0.0812 
    124 H124       30.6401   -2.7543   -9.3155 H         1 UNK         0.0812 
    125 H125       31.1846    1.4174  -10.1138 H         1 UNK         0.3205 
    126 H126       32.4197    3.2364  -10.0486 H         1 UNK         0.0754 
    127 H127       34.3552    3.5683  -11.5280 H         1 UNK         0.0769 
    128 H128       33.0950    2.7144  -12.4036 H         1 UNK         0.0769 
    129 H129       34.5058    1.8412  -11.8067 H         1 UNK         0.0769 
    130 H130       32.4205    1.7130   -7.8822 H         1 UNK         0.2981 
    131 H131       35.1758    1.5372   -6.7903 H         1 UNK         0.0541 
    132 H132       32.6904    3.9351   -6.9093 H         1 UNK         0.3459 
    133 H133       33.2420    4.8351   -5.5176 H         1 UNK         0.3459 
    134 H134       32.5656    0.6012   -5.5093 H         1 UNK         0.0612 
    135 H135       34.1713    0.3721   -4.8683 H         1 UNK         0.0612 
    136 H136       33.9582   -3.2676   -5.7667 H         1 UNK         0.0624 
    137 H137       34.1474   -2.0407   -4.5452 H         1 UNK         0.0624 
@<TRIPOS>BOND
     1    1    2 1    
     2    1   72 1    
     3    1   73 1    
     4    1   74 1    
     5    2    3 2    
     6    2    4 am   BACKBONE|DICT|INTERRES
     7    4    5 1    
     8    4   75 1    
     9    5    6 1    
    10    5   35 1    
    11    5   76 1    
    12    6    7 1    
    13    6   77 1    
    14    6   78 1    
    15    7    8 1    
    16    8    9 1    
    17    8   79 1    
    18    8   80 1    
    19    9   10 ar   
    20    9   14 ar   
    21   10   11 ar   
    22   10   81 1    
    23   11   12 ar   
    24   11   71 1    
    25   12   13 ar   
    26   12   82 1    
    27   13   14 ar   
    28   13   15 1    
    29   14   83 1    
    30   15   16 1    
    31   15   84 1    
    32   15   85 1    
    33   16   17 1    
    34   17   18 1    
    35   17   86 1    
    36   17   87 1    
    37   18   19 1    
    38   18   37 1    
    39   18   88 1    
    40   19   20 am   BACKBONE|DICT|INTERRES
    41   19   89 1    
    42   20   21 2    
    43   20   22 1    
    44   22   23 1    
    45   22   24 1    
    46   22   90 1    
    47   23   91 1    
    48   23   92 1    
    49   23   93 1    
    50   24   25 am   BACKBONE|DICT|INTERRES
    51   24   94 1    
    52   25   26 2    
    53   25   27 1    
    54   27   28 1    
    55   27   29 1    
    56   27   95 1    
    57   28   96 1    
    58   28   97 1    
    59   28   98 1    
    60   29   30 am   BACKBONE|DICT|INTERRES
    61   29   99 1    
    62   30   31 2    
    63   30   32 1    
    64   32   33 1    
    65   32   34 1    
    66   32  100 1    
    67   33  101 1    
    68   33  102 1    
    69   33  103 1    
    70   34   35 am   BACKBONE|DICT|INTERRES
    71   34  104 1    
    72   35   36 2    
    73   37   38 2    
    74   37   39 am   BACKBONE|DICT|INTERRES
    75   39   40 1    
    76   39  105 1    
    77   40   41 1    
    78   40   42 1    
    79   40  106 1    
    80   41  107 1    
    81   41  108 1    
    82   41  109 1    
    83   42   43 2    
    84   42   44 am   BACKBONE|DICT|INTERRES
    85   44   45 1    
    86   44  110 1    
    87   45   46 1    
    88   45   47 1    
    89   45  111 1    
    90   46  112 1    
    91   46  113 1    
    92   46  114 1    
    93   47   48 2    
    94   47   49 am   BACKBONE|DICT|INTERRES
    95   49   50 1    
    96   49  115 1    
    97   50   51 1    
    98   50   52 1    
    99   50  116 1    
   100   51  117 1    
   101   51  118 1    
   102   51  119 1    
   103   52   53 2    
   104   52   54 am   BACKBONE|DICT|INTERRES
   105   54   55 1    
   106   54  120 1    
   107   55   56 1    
   108   55   57 1    
   109   55  121 1    
   110   56  122 1    
   111   56  123 1    
   112   56  124 1    
   113   57   58 2    
   114   57   59 am   BACKBONE|DICT|INTERRES
   115   59   60 1    
   116   59  125 1    
   117   60   61 1    
   118   60   62 1    
   119   60  126 1    
   120   61  127 1    
   121   61  128 1    
   122   61  129 1    
   123   62   63 2    
   124   62   64 am   BACKBONE|DICT|INTERRES
   125   64   65 1    
   126   64  130 1    
   127   65   66 1    
   128   65   69 1    
   129   65  131 1    
   130   66   67 am   BACKBONE|DICT|INTERRES
   131   66   68 2    
   132   67  132 1    
   133   67  133 1    
   134   69   70 1    
   135   69  134 1    
   136   69  135 1    
   137   70   71 1    
   138   71  136 1    
   139   71  137 1    
@<TRIPOS>SUBSTRUCTURE
     1 UNK         1 GROUP             0       ****    0 ROOT    
