@<TRIPOS>MOLECULE
3R137
137   139    1
SMALL
USER_CHARGES


@<TRIPOS>ATOM
      1 CA         26.9869   -5.7023   -3.7198 C.3       0 UNK        -0.2020 
      2 C          26.9693   -4.4665   -2.8344 C.2       0 UNK         0.4855 
      3 O          26.9629   -3.3490   -3.3550 O.2       0 UNK        -0.5197 
      4 N          26.9548   -4.6610   -1.5060 N.am      1 UNK        -0.4892 
      5 CA         26.9391   -3.6147   -0.4718 C.3       1 UNK         0.0835 
      6 C6         28.2848   -2.8417   -0.3924 C.3       12 UNK        -0.0855 
      7 S7         29.7058   -3.8680    0.1216 S.3       12 UNK        -0.2931 
      8 C8         30.5424   -4.2588   -1.4606 C.3       12 UNK         0.0378 
      9 C9         31.0110   -3.0750   -2.3141 C.ar      12 UNK        -0.0802 
     10 C10        31.4464   -3.3372   -3.6170 C.ar      12 UNK        -0.0944 
     11 C11        31.8365   -2.2988   -4.4673 C.ar      12 UNK        -0.0787 
     12 C12        31.7760   -0.9798   -4.0136 C.ar      12 UNK        -0.0862 
     13 C13        31.3445   -0.6963   -2.7157 C.ar      12 UNK        -0.0733 
     14 C14        31.0027   -1.7483   -1.8613 C.ar      12 UNK        -0.0832 
     15 C15        31.2156    0.7438   -2.2338 C.3       12 UNK         0.0240 
     16 S16        30.1641    1.7851   -3.3066 S.3       12 UNK        -0.2522 
     17 C17        28.6285    0.8122   -3.5227 C.3       12 UNK        -0.0967 
     18 CA         28.2417    0.6926   -5.0221 C.3       5 UNK         0.0660 
     19 N          27.5029   -0.5447   -5.3113 N.am      5 UNK        -0.4015 
     20 C          27.1356   -0.9506   -6.5379 C.2       4 UNK         0.4946 
     21 O          27.3355   -0.3031   -7.5647 O.2       4 UNK        -0.5353 
     22 CA         26.3677   -2.2744   -6.6394 C.3       4 UNK         0.0277 
     23 CB         27.3287   -3.4723   -6.6651 C.3       4 UNK        -0.1981 
     24 N          25.4136   -2.4166   -5.5394 N.am      4 UNK        -0.4209 
     25 C          24.1600   -1.9459   -5.5848 C.2       3 UNK         0.4942 
     26 O          23.6703   -1.3912   -6.5696 O.2       3 UNK        -0.5208 
     27 CA         23.3005   -2.1140   -4.3209 C.3       3 UNK         0.0250 
     28 CB         22.7930   -3.5605   -4.2022 C.3       3 UNK        -0.1990 
     29 N          23.9574   -1.7297   -3.0691 N.am      3 UNK        -0.4232 
     30 C          24.5427   -0.5564   -2.7972 C.2       2 UNK         0.4993 
     31 O          24.7162    0.3360   -3.6248 O.2       2 UNK        -0.5286 
     32 CA         25.0415   -0.3409   -1.3584 C.3       2 UNK         0.0209 
     33 CB         23.8736   -0.1202   -0.3766 C.3       2 UNK        -0.1931 
     34 N          25.9607   -1.3916   -0.9054 N.am      2 UNK        -0.4546 
     35 C          25.7142   -2.6911   -0.6754 C.2       1 UNK         0.5154 
     36 O          24.5846   -3.1870   -0.6859 O.2       1 UNK        -0.5181 
     37 C          27.5153    1.9631   -5.5238 C.2       5 UNK         0.5014 
     38 O          28.1659    2.8731   -6.0391 O.2       5 UNK        -0.5248 
     39 N          26.1797    1.9940   -5.3973 N.am      6 UNK        -0.4434 
     40 CA         25.3232    3.0654   -5.9110 C.3       6 UNK         0.0363 
     41 CB         23.9177    2.9307   -5.3035 C.3       6 UNK        -0.1936 
     42 C          25.2359    3.1078   -7.4477 C.2       6 UNK         0.5081 
     43 O          24.9586    4.1762   -7.9942 O.2       6 UNK        -0.5248 
     44 N          25.4590    1.9692   -8.1207 N.am      7 UNK        -0.4718 
     45 CA         25.5031    1.8816   -9.5814 C.3       7 UNK         0.0273 
     46 CB         25.1662    0.4532  -10.0418 C.3       7 UNK        -0.1935 
     47 C          26.8687    2.3388  -10.1149 C.2       7 UNK         0.5018 
     48 O          26.9106    3.1534  -11.0381 O.2       7 UNK        -0.5186 
     49 N          27.9534    1.8418   -9.5069 N.am      8 UNK        -0.4240 
     50 CA         29.3263    2.2553   -9.7815 C.3       8 UNK         0.0235 
     51 CB         29.8392    1.6159  -11.0878 C.3       8 UNK        -0.2000 
     52 C          30.2025    1.8399   -8.5997 C.2       8 UNK         0.4941 
     53 O          30.2211    0.6586   -8.2576 O.2       8 UNK        -0.5273 
     54 N          30.9671    2.7848   -8.0364 N.am      9 UNK        -0.4262 
     55 CA         31.8653    2.5500   -6.8965 C.3       9 UNK         0.0264 
     56 CB         32.3912    3.8967   -6.3753 C.3       9 UNK        -0.1955 
     57 C          33.0327    1.5877   -7.1939 C.2       9 UNK         0.5031 
     58 O          33.5886    1.0076   -6.2619 O.2       9 UNK        -0.5390 
     59 N          33.3777    1.4262   -8.4776 N.am      10 UNK        -0.4204 
     60 CA         34.3402    0.4364   -8.9633 C.3       10 UNK         0.0237 
     61 CB         35.0037    0.9810  -10.2403 C.3       10 UNK        -0.1985 
     62 C          33.7040   -0.9414   -9.2363 C.2       10 UNK         0.4970 
     63 O          34.4503   -1.8973   -9.4498 O.2       10 UNK        -0.4914 
     64 N          32.3637   -1.0235   -9.2616 N.am      11 UNK        -0.4285 
     65 CA         31.5662   -2.2119   -9.6167 C.3       11 UNK         0.1007 
     66 C          31.7862   -2.7401  -11.0692 C.2       11 UNK         0.5703 
     67 N          32.2738   -1.9254  -11.9982 N.am      11 UNK        -0.7361 
     68 O          31.4805   -3.8903  -11.3761 O.2       11 UNK        -0.4986 
     69 C69        31.6346   -3.3261   -8.5340 C.3       12 UNK        -0.0947 
     70 S70        30.8544   -2.7989   -6.9746 S.3       12 UNK        -0.2240 
     71 C71        32.2905   -2.6040   -5.8848 C.3       12 UNK         0.0194 
     72 H72        26.1220   -5.7004   -4.3825 H         1 UNK         0.0906 
     73 H73        26.9673   -6.6232   -3.1376 H         1 UNK         0.0906 
     74 H74        27.8872   -5.7076   -4.3337 H         1 UNK         0.0906 
     75 H75        26.9281   -5.6065   -1.1505 H         1 UNK         0.3140 
     76 H76        26.7787   -4.1143    0.4851 H         1 UNK         0.1085 
     77 H77        28.2211   -2.0391    0.3450 H         1 UNK         0.0836 
     78 H78        28.4943   -2.3661   -1.3502 H         1 UNK         0.0836 
     79 H79        29.8688   -4.8781   -2.0541 H         1 UNK         0.0731 
     80 H80        31.4092   -4.8820   -1.2367 H         1 UNK         0.0731 
     81 H81        31.4652   -4.3555   -3.9816 H         1 UNK         0.1312 
     82 H82        32.0402   -0.1694   -4.6769 H         1 UNK         0.1406 
     83 H83        30.6923   -1.5192   -0.8524 H         1 UNK         0.1631 
     84 H84        32.2103    1.1882   -2.1808 H         1 UNK         0.0717 
     85 H85        30.8098    0.7790   -1.2216 H         1 UNK         0.0717 
     86 H86        28.7745   -0.1795   -3.0946 H         1 UNK         0.0934 
     87 H87        27.8280    1.2658   -2.9349 H         1 UNK         0.0934 
     88 H88        29.1622    0.6078   -5.6052 H         1 UNK         0.0739 
     89 H89        27.2932   -1.1484   -4.5288 H         1 UNK         0.3093 
     90 H90        25.8259   -2.2728   -7.5881 H         1 UNK         0.0818 
     91 H91        27.9590   -3.4365   -7.5543 H         1 UNK         0.0819 
     92 H92        27.9916   -3.4846   -5.7995 H         1 UNK         0.0819 
     93 H93        26.7876   -4.4179   -6.6910 H         1 UNK         0.0819 
     94 H94        25.7691   -2.8230   -4.6763 H         1 UNK         0.3041 
     95 H95        22.4336   -1.4598   -4.4338 H         1 UNK         0.0784 
     96 H96        22.2889   -3.8757   -5.1170 H         1 UNK         0.0793 
     97 H97        23.6093   -4.2608   -4.0198 H         1 UNK         0.0793 
     98 H98        22.0762   -3.6634   -3.3872 H         1 UNK         0.0793 
     99 H99        23.9293   -2.4051   -2.3099 H         1 UNK         0.3024 
    100 H100       25.6266    0.5806   -1.3711 H         1 UNK         0.1171 
    101 H101       24.2373    0.0870    0.6298 H         1 UNK         0.0786 
    102 H102       23.2677    0.7333   -0.6837 H         1 UNK         0.0786 
    103 H103       23.2081   -0.9818   -0.3208 H         1 UNK         0.0786 
    104 H104       26.9309   -1.1126   -0.8928 H         1 UNK         0.2977 
    105 H105       25.7071    1.2397   -4.9006 H         1 UNK         0.3127 
    106 H106       25.7447    4.0179   -5.5827 H         1 UNK         0.0770 
    107 H107       23.4530    1.9813   -5.5740 H         1 UNK         0.0814 
    108 H108       23.2609    3.7285   -5.6528 H         1 UNK         0.0814 
    109 H109       23.9485    2.9900   -4.2154 H         1 UNK         0.0814 
    110 H110       25.7516    1.1453   -7.6089 H         1 UNK         0.2983 
    111 H111       24.7427    2.5477   -9.9958 H         1 UNK         0.0947 
    112 H112       25.9137   -0.2721   -9.7214 H         1 UNK         0.0806 
    113 H113       25.1139    0.4015  -11.1300 H         1 UNK         0.0806 
    114 H114       24.2000    0.1294   -9.6543 H         1 UNK         0.0806 
    115 H115       27.8419    1.1556   -8.7604 H         1 UNK         0.3000 
    116 H116       29.3524    3.3428   -9.8795 H         1 UNK         0.0850 
    117 H117       30.8770    1.8912  -11.2787 H         1 UNK         0.0810 
    118 H118       29.2569    1.9429  -11.9492 H         1 UNK         0.0810 
    119 H119       29.7907    0.5267  -11.0475 H         1 UNK         0.0810 
    120 H120       30.9021    3.7353   -8.3726 H         1 UNK         0.3040 
    121 H121       31.2705    2.0895   -6.1052 H         1 UNK         0.0766 
    122 H122       31.5733    4.5458   -6.0617 H         1 UNK         0.0812 
    123 H123       32.9732    4.4249   -7.1315 H         1 UNK         0.0812 
    124 H124       33.0364    3.7527   -5.5073 H         1 UNK         0.0812 
    125 H125       32.8890    1.9706   -9.1730 H         1 UNK         0.3205 
    126 H126       35.1199    0.2912   -8.2122 H         1 UNK         0.0754 
    127 H127       35.7544    0.2857  -10.6190 H         1 UNK         0.0769 
    128 H128       35.5106    1.9274  -10.0502 H         1 UNK         0.0769 
    129 H129       34.2779    1.1430  -11.0382 H         1 UNK         0.0769 
    130 H130       31.8062   -0.2215   -8.9865 H         1 UNK         0.2981 
    131 H131       30.5349   -1.8571   -9.6362 H         1 UNK         0.0541 
    132 H132       32.4022   -2.2705  -12.9362 H         1 UNK         0.3459 
    133 H133       32.5190   -0.9764  -11.7706 H         1 UNK         0.3459 
    134 H134       31.0929   -4.2167   -8.8560 H         1 UNK         0.0612 
    135 H135       32.6629   -3.6453   -8.3600 H         1 UNK         0.0612 
    136 H136       32.8865   -3.5176   -5.8950 H         1 UNK         0.0624 
    137 H137       32.9291   -1.8056   -6.2658 H         1 UNK         0.0624 
@<TRIPOS>BOND
     1    1    2 1    
     2    1   72 1    
     3    1   73 1    
     4    1   74 1    
     5    2    3 2    
     6    2    4 am   BACKBONE|DICT|INTERRES
     7    4    5 1    
     8    4   75 1    
     9    5    6 1    
    10    5   35 1    
    11    5   76 1    
    12    6    7 1    
    13    6   77 1    
    14    6   78 1    
    15    7    8 1    
    16    8    9 1    
    17    8   79 1    
    18    8   80 1    
    19    9   10 ar   
    20    9   14 ar   
    21   10   11 ar   
    22   10   81 1    
    23   11   12 ar   
    24   11   71 1    
    25   12   13 ar   
    26   12   82 1    
    27   13   14 ar   
    28   13   15 1    
    29   14   83 1    
    30   15   16 1    
    31   15   84 1    
    32   15   85 1    
    33   16   17 1    
    34   17   18 1    
    35   17   86 1    
    36   17   87 1    
    37   18   19 1    
    38   18   37 1    
    39   18   88 1    
    40   19   20 am   BACKBONE|DICT|INTERRES
    41   19   89 1    
    42   20   21 2    
    43   20   22 1    
    44   22   23 1    
    45   22   24 1    
    46   22   90 1    
    47   23   91 1    
    48   23   92 1    
    49   23   93 1    
    50   24   25 am   BACKBONE|DICT|INTERRES
    51   24   94 1    
    52   25   26 2    
    53   25   27 1    
    54   27   28 1    
    55   27   29 1    
    56   27   95 1    
    57   28   96 1    
    58   28   97 1    
    59   28   98 1    
    60   29   30 am   BACKBONE|DICT|INTERRES
    61   29   99 1    
    62   30   31 2    
    63   30   32 1    
    64   32   33 1    
    65   32   34 1    
    66   32  100 1    
    67   33  101 1    
    68   33  102 1    
    69   33  103 1    
    70   34   35 am   BACKBONE|DICT|INTERRES
    71   34  104 1    
    72   35   36 2    
    73   37   38 2    
    74   37   39 am   BACKBONE|DICT|INTERRES
    75   39   40 1    
    76   39  105 1    
    77   40   41 1    
    78   40   42 1    
    79   40  106 1    
    80   41  107 1    
    81   41  108 1    
    82   41  109 1    
    83   42   43 2    
    84   42   44 am   BACKBONE|DICT|INTERRES
    85   44   45 1    
    86   44  110 1    
    87   45   46 1    
    88   45   47 1    
    89   45  111 1    
    90   46  112 1    
    91   46  113 1    
    92   46  114 1    
    93   47   48 2    
    94   47   49 am   BACKBONE|DICT|INTERRES
    95   49   50 1    
    96   49  115 1    
    97   50   51 1    
    98   50   52 1    
    99   50  116 1    
   100   51  117 1    
   101   51  118 1    
   102   51  119 1    
   103   52   53 2    
   104   52   54 am   BACKBONE|DICT|INTERRES
   105   54   55 1    
   106   54  120 1    
   107   55   56 1    
   108   55   57 1    
   109   55  121 1    
   110   56  122 1    
   111   56  123 1    
   112   56  124 1    
   113   57   58 2    
   114   57   59 am   BACKBONE|DICT|INTERRES
   115   59   60 1    
   116   59  125 1    
   117   60   61 1    
   118   60   62 1    
   119   60  126 1    
   120   61  127 1    
   121   61  128 1    
   122   61  129 1    
   123   62   63 2    
   124   62   64 am   BACKBONE|DICT|INTERRES
   125   64   65 1    
   126   64  130 1    
   127   65   66 1    
   128   65   69 1    
   129   65  131 1    
   130   66   67 am   BACKBONE|DICT|INTERRES
   131   66   68 2    
   132   67  132 1    
   133   67  133 1    
   134   69   70 1    
   135   69  134 1    
   136   69  135 1    
   137   70   71 1    
   138   71  136 1    
   139   71  137 1    
@<TRIPOS>SUBSTRUCTURE
     1 UNK         1 GROUP             0       ****    0 ROOT    
