@<TRIPOS>MOLECULE
3R137
137   139    1
SMALL
USER_CHARGES


@<TRIPOS>ATOM
      1 CA         24.6783   -5.7172   -4.8716 C.3       0 UNK        -0.2020 
      2 C          24.8591   -4.8593   -3.6291 C.2       0 UNK         0.4855 
      3 O          23.8859   -4.2765   -3.1526 O.2       0 UNK        -0.5197 
      4 N          26.0990   -4.7712   -3.1257 N.am      1 UNK        -0.4892 
      5 CA         26.5597   -4.0634   -1.9207 C.3       1 UNK         0.0835 
      6 C6         28.1092   -4.0281   -1.8456 C.3       12 UNK        -0.0855 
      7 S7         28.9526   -5.6064   -2.2104 S.3       12 UNK        -0.2931 
      8 C8         30.7123   -5.1281   -2.0614 C.3       12 UNK         0.0378 
      9 C9         31.0219   -3.7979   -2.7409 C.ar      12 UNK        -0.0802 
     10 C10        31.1225   -3.7158   -4.1324 C.ar      12 UNK        -0.0944 
     11 C11        31.3496   -2.4841   -4.7555 C.ar      12 UNK        -0.0787 
     12 C12        31.4820   -1.3310   -3.9750 C.ar      12 UNK        -0.0862 
     13 C13        31.3781   -1.3968   -2.5809 C.ar      12 UNK        -0.0733 
     14 C14        31.1607   -2.6371   -1.9729 C.ar      12 UNK        -0.0832 
     15 C15        31.5083   -0.1495   -1.7072 C.3       12 UNK         0.0240 
     16 S16        30.6418    1.3298   -2.3413 S.3       12 UNK        -0.2522 
     17 C17        28.9442    0.7224   -2.6342 C.3       12 UNK        -0.0967 
     18 CA         28.5700    0.8239   -4.1367 C.3       5 UNK         0.0660 
     19 N          27.7253   -0.2856   -4.5775 N.am      5 UNK        -0.4015 
     20 C          27.5865   -0.6507   -5.8585 C.2       4 UNK         0.4946 
     21 O          28.1716   -0.1078   -6.7966 O.2       4 UNK        -0.5353 
     22 CA         26.6249   -1.8084   -6.1514 C.3       4 UNK         0.0277 
     23 CB         27.3363   -3.1516   -5.9247 C.3       4 UNK        -0.1981 
     24 N          25.3808   -1.7527   -5.3748 N.am      4 UNK        -0.4209 
     25 C          24.4547   -0.7877   -5.4824 C.2       3 UNK         0.4942 
     26 O          24.5900    0.2133   -6.1842 O.2       3 UNK        -0.5208 
     27 CA         23.1629   -0.9656   -4.6691 C.3       3 UNK         0.0250 
     28 CB         22.2376   -1.9967   -5.3353 C.3       3 UNK        -0.1990 
     29 N          23.4398   -1.3670   -3.2901 N.am      3 UNK        -0.4232 
     30 C          23.8040   -0.5120   -2.3233 C.2       2 UNK         0.4993 
     31 O          23.8475    0.7089   -2.4693 O.2       2 UNK        -0.5286 
     32 CA         24.2376   -1.1177   -0.9744 C.3       2 UNK         0.0209 
     33 CB         23.0296   -1.2641   -0.0353 C.3       2 UNK        -0.1931 
     34 N          24.9239   -2.4100   -1.0942 N.am      2 UNK        -0.4546 
     35 C          26.0228   -2.6182   -1.8323 C.2       1 UNK         0.5154 
     36 O          26.5840   -1.7266   -2.4738 O.2       1 UNK        -0.5181 
     37 C          27.9517    2.1908   -4.4955 C.2       5 UNK         0.5014 
     38 O          28.6908    3.1080   -4.8540 O.2       5 UNK        -0.5248 
     39 N          26.6143    2.2991   -4.4335 N.am      6 UNK        -0.4434 
     40 CA         25.8650    3.4944   -4.8343 C.3       6 UNK         0.0363 
     41 CB         24.4109    3.3906   -4.3487 C.3       6 UNK        -0.1936 
     42 C          25.9163    3.7360   -6.3517 C.2       6 UNK         0.5081 
     43 O          26.0938    4.8770   -6.7786 O.2       6 UNK        -0.5248 
     44 N          25.7879    2.6575   -7.1368 N.am      7 UNK        -0.4718 
     45 CA         25.9288    2.6693   -8.5952 C.3       7 UNK         0.0273 
     46 CB         25.3454    1.3639   -9.1613 C.3       7 UNK        -0.1935 
     47 C          27.3839    2.8412   -9.0681 C.2       7 UNK         0.5018 
     48 O          27.5903    3.2409  -10.2145 O.2       7 UNK        -0.5186 
     49 N          28.3480    2.5098   -8.1941 N.am      8 UNK        -0.4240 
     50 CA         29.7896    2.3979   -8.4429 C.3       8 UNK         0.0235 
     51 CB         30.4133    3.7725   -8.7623 C.3       8 UNK        -0.2000 
     52 C          30.0769    1.3300   -9.5133 C.2       8 UNK         0.4941 
     53 O          30.7371    1.6108  -10.5164 O.2       8 UNK        -0.5273 
     54 N          29.5271    0.1276   -9.2918 N.am      9 UNK        -0.4262 
     55 CA         29.5305   -1.0177  -10.2061 C.3       9 UNK         0.0264 
     56 CB         28.5068   -2.0494   -9.6978 C.3       9 UNK        -0.1955 
     57 C          30.9325   -1.6285  -10.4014 C.2       9 UNK         0.5031 
     58 O          31.2078   -2.7148   -9.8900 O.2       9 UNK        -0.5390 
     59 N          31.7872   -0.8981  -11.1313 N.am      10 UNK        -0.4204 
     60 CA         33.2028   -1.1713  -11.4116 C.3       10 UNK         0.0237 
     61 CB         33.3726   -2.4672  -12.2342 C.3       10 UNK        -0.1985 
     62 C          34.0779   -1.1374  -10.1422 C.2       10 UNK         0.4970 
     63 O          35.0546   -1.8839  -10.0505 O.2       10 UNK        -0.4914 
     64 N          33.7137   -0.2621   -9.1976 N.am      11 UNK        -0.4285 
     65 CA         34.3901   -0.0488   -7.9128 C.3       11 UNK         0.1007 
     66 C          34.7231    1.4536   -7.7413 C.2       11 UNK         0.5703 
     67 N          35.8432    1.7748   -7.1071 N.am      11 UNK        -0.7361 
     68 O          33.9596    2.3292   -8.1482 O.2       11 UNK        -0.4986 
     69 C69        33.5369   -0.5540   -6.7191 C.3       12 UNK        -0.0947 
     70 S70        33.1789   -2.3410   -6.8162 S.3       12 UNK        -0.2240 
     71 C71        31.4447   -2.4027   -6.2719 C.3       12 UNK         0.0194 
     72 H72        25.6076   -6.1981   -5.1766 H         1 UNK         0.0906 
     73 H73        23.9411   -6.4969   -4.6821 H         1 UNK         0.0906 
     74 H74        24.3220   -5.1078   -5.7017 H         1 UNK         0.0906 
     75 H75        26.8368   -5.2957   -3.5762 H         1 UNK         0.3140 
     76 H76        26.1909   -4.6226   -1.0588 H         1 UNK         0.1085 
     77 H77        28.4896   -3.3044   -2.5678 H         1 UNK         0.0836 
     78 H78        28.4329   -3.6793   -0.8629 H         1 UNK         0.0836 
     79 H79        31.3322   -5.9139   -2.4956 H         1 UNK         0.0731 
     80 H80        30.9758   -5.0846   -1.0035 H         1 UNK         0.0731 
     81 H81        31.0076   -4.6101   -4.7294 H         1 UNK         0.1312 
     82 H82        31.6614   -0.3792   -4.4538 H         1 UNK         0.1406 
     83 H83        31.0765   -2.6982   -0.8962 H         1 UNK         0.1631 
     84 H84        32.5669    0.0885   -1.5979 H         1 UNK         0.0717 
     85 H85        31.1338   -0.3493   -0.7020 H         1 UNK         0.0717 
     86 H86        28.8850   -0.3124   -2.2942 H         1 UNK         0.0934 
     87 H87        28.2454    1.2714   -1.9996 H         1 UNK         0.0934 
     88 H88        29.4896    0.7431   -4.7207 H         1 UNK         0.0739 
     89 H89        27.2328   -0.8069   -3.8517 H         1 UNK         0.3093 
     90 H90        26.3523   -1.7435   -7.2070 H         1 UNK         0.0818 
     91 H91        27.6264   -3.2832   -4.8826 H         1 UNK         0.0819 
     92 H92        26.7077   -3.9916   -6.2174 H         1 UNK         0.0819 
     93 H93        28.2503   -3.2150   -6.5160 H         1 UNK         0.0819 
     94 H94        25.2121   -2.5056   -4.7258 H         1 UNK         0.3041 
     95 H95        22.6404   -0.0061   -4.6607 H         1 UNK         0.0784 
     96 H96        22.0083   -1.7079   -6.3621 H         1 UNK         0.0793 
     97 H97        22.6867   -2.9897   -5.3680 H         1 UNK         0.0793 
     98 H98        21.2897   -2.0775   -4.8030 H         1 UNK         0.0793 
     99 H99        23.4574   -2.3644   -3.0911 H         1 UNK         0.3024 
    100 H100       24.9421   -0.4156   -0.5226 H         1 UNK         0.1171 
    101 H101       22.5119   -0.3114    0.0858 H         1 UNK         0.0786 
    102 H102       23.3358   -1.5924    0.9582 H         1 UNK         0.0786 
    103 H103       22.3046   -1.9828   -0.4196 H         1 UNK         0.0786 
    104 H104       24.4836   -3.2006   -0.6452 H         1 UNK         0.2977 
    105 H105       26.0699    1.4981   -4.1451 H         1 UNK         0.3127 
    106 H106       26.3226    4.3581   -4.3465 H         1 UNK         0.0770 
    107 H107       23.9041    2.5197   -4.7661 H         1 UNK         0.0814 
    108 H108       23.8379    4.2722   -4.6393 H         1 UNK         0.0814 
    109 H109       24.3612    3.3173   -3.2622 H         1 UNK         0.0814 
    110 H110       25.5563    1.7623   -6.7107 H         1 UNK         0.2983 
    111 H111       25.3518    3.5077   -8.9915 H         1 UNK         0.0947 
    112 H112       25.4063    1.3461  -10.2504 H         1 UNK         0.0806 
    113 H113       24.2949    1.2493   -8.8928 H         1 UNK         0.0806 
    114 H114       25.8826    0.4902   -8.7891 H         1 UNK         0.0806 
    115 H115       28.0409    2.1484   -7.3002 H         1 UNK         0.3000 
    116 H116       30.2373    2.0384   -7.5147 H         1 UNK         0.0850 
    117 H117       31.4981    3.6945   -8.8467 H         1 UNK         0.0810 
    118 H118       30.1997    4.4952   -7.9748 H         1 UNK         0.0810 
    119 H119       30.0441    4.1810   -9.7034 H         1 UNK         0.0810 
    120 H120       29.0163    0.0008   -8.4182 H         1 UNK         0.3040 
    121 H121       29.1883   -0.6680  -11.1825 H         1 UNK         0.0766 
    122 H122       27.5061   -1.6211   -9.6385 H         1 UNK         0.0812 
    123 H123       28.7722   -2.4203   -8.7077 H         1 UNK         0.0812 
    124 H124       28.4533   -2.9099  -10.3659 H         1 UNK         0.0812 
    125 H125       31.4603    0.0300  -11.3913 H         1 UNK         0.3205 
    126 H126       33.5496   -0.3444  -12.0329 H         1 UNK         0.0754 
    127 H127       34.4037   -2.5847  -12.5698 H         1 UNK         0.0769 
    128 H128       32.7430   -2.4581  -13.1239 H         1 UNK         0.0769 
    129 H129       33.1190   -3.3536  -11.6520 H         1 UNK         0.0769 
    130 H130       32.9438    0.3645   -9.3837 H         1 UNK         0.2981 
    131 H131       35.3368   -0.5929   -7.9061 H         1 UNK         0.0541 
    132 H132       36.0681    2.7488   -6.9763 H         1 UNK         0.3459 
    133 H133       36.4700    1.0650   -6.7586 H         1 UNK         0.3459 
    134 H134       34.0532   -0.3733   -5.7747 H         1 UNK         0.0612 
    135 H135       32.6009    0.0048   -6.6692 H         1 UNK         0.0612 
    136 H136       30.9746   -3.2765   -6.7254 H         1 UNK         0.0624 
    137 H137       30.8910   -1.5402   -6.6464 H         1 UNK         0.0624 
@<TRIPOS>BOND
     1    1    2 1    
     2    1   72 1    
     3    1   73 1    
     4    1   74 1    
     5    2    3 2    
     6    2    4 am   BACKBONE|DICT|INTERRES
     7    4    5 1    
     8    4   75 1    
     9    5    6 1    
    10    5   35 1    
    11    5   76 1    
    12    6    7 1    
    13    6   77 1    
    14    6   78 1    
    15    7    8 1    
    16    8    9 1    
    17    8   79 1    
    18    8   80 1    
    19    9   10 ar   
    20    9   14 ar   
    21   10   11 ar   
    22   10   81 1    
    23   11   12 ar   
    24   11   71 1    
    25   12   13 ar   
    26   12   82 1    
    27   13   14 ar   
    28   13   15 1    
    29   14   83 1    
    30   15   16 1    
    31   15   84 1    
    32   15   85 1    
    33   16   17 1    
    34   17   18 1    
    35   17   86 1    
    36   17   87 1    
    37   18   19 1    
    38   18   37 1    
    39   18   88 1    
    40   19   20 am   BACKBONE|DICT|INTERRES
    41   19   89 1    
    42   20   21 2    
    43   20   22 1    
    44   22   23 1    
    45   22   24 1    
    46   22   90 1    
    47   23   91 1    
    48   23   92 1    
    49   23   93 1    
    50   24   25 am   BACKBONE|DICT|INTERRES
    51   24   94 1    
    52   25   26 2    
    53   25   27 1    
    54   27   28 1    
    55   27   29 1    
    56   27   95 1    
    57   28   96 1    
    58   28   97 1    
    59   28   98 1    
    60   29   30 am   BACKBONE|DICT|INTERRES
    61   29   99 1    
    62   30   31 2    
    63   30   32 1    
    64   32   33 1    
    65   32   34 1    
    66   32  100 1    
    67   33  101 1    
    68   33  102 1    
    69   33  103 1    
    70   34   35 am   BACKBONE|DICT|INTERRES
    71   34  104 1    
    72   35   36 2    
    73   37   38 2    
    74   37   39 am   BACKBONE|DICT|INTERRES
    75   39   40 1    
    76   39  105 1    
    77   40   41 1    
    78   40   42 1    
    79   40  106 1    
    80   41  107 1    
    81   41  108 1    
    82   41  109 1    
    83   42   43 2    
    84   42   44 am   BACKBONE|DICT|INTERRES
    85   44   45 1    
    86   44  110 1    
    87   45   46 1    
    88   45   47 1    
    89   45  111 1    
    90   46  112 1    
    91   46  113 1    
    92   46  114 1    
    93   47   48 2    
    94   47   49 am   BACKBONE|DICT|INTERRES
    95   49   50 1    
    96   49  115 1    
    97   50   51 1    
    98   50   52 1    
    99   50  116 1    
   100   51  117 1    
   101   51  118 1    
   102   51  119 1    
   103   52   53 2    
   104   52   54 am   BACKBONE|DICT|INTERRES
   105   54   55 1    
   106   54  120 1    
   107   55   56 1    
   108   55   57 1    
   109   55  121 1    
   110   56  122 1    
   111   56  123 1    
   112   56  124 1    
   113   57   58 2    
   114   57   59 am   BACKBONE|DICT|INTERRES
   115   59   60 1    
   116   59  125 1    
   117   60   61 1    
   118   60   62 1    
   119   60  126 1    
   120   61  127 1    
   121   61  128 1    
   122   61  129 1    
   123   62   63 2    
   124   62   64 am   BACKBONE|DICT|INTERRES
   125   64   65 1    
   126   64  130 1    
   127   65   66 1    
   128   65   69 1    
   129   65  131 1    
   130   66   67 am   BACKBONE|DICT|INTERRES
   131   66   68 2    
   132   67  132 1    
   133   67  133 1    
   134   69   70 1    
   135   69  134 1    
   136   69  135 1    
   137   70   71 1    
   138   71  136 1    
   139   71  137 1    
@<TRIPOS>SUBSTRUCTURE
     1 UNK         1 GROUP             0       ****    0 ROOT    
