@<TRIPOS>MOLECULE
3R137
137   139    1
SMALL
USER_CHARGES


@<TRIPOS>ATOM
      1 CA         25.2961   -4.8176   -3.1535 C.3       0 UNK        -0.2020 
      2 C          25.8864   -4.0762   -1.9645 C.2       0 UNK         0.4855 
      3 O          25.1369   -3.5148   -1.1674 O.2       0 UNK        -0.5197 
      4 N          27.2195   -4.0758   -1.8312 N.am      1 UNK        -0.4892 
      5 CA         27.9444   -3.5005   -0.6884 C.3       1 UNK         0.0835 
      6 C6         29.4309   -3.9401   -0.6356 C.3       12 UNK        -0.0855 
      7 S7         29.6299   -5.7512   -0.7708 S.3       12 UNK        -0.2931 
      8 C8         31.1916   -5.9055   -1.7051 C.3       12 UNK         0.0378 
      9 C9         31.1766   -5.2193   -3.0697 C.ar      12 UNK        -0.0802 
     10 C10        32.2478   -4.3980   -3.4408 C.ar      12 UNK        -0.0944 
     11 C11        32.2784   -3.7816   -4.6955 C.ar      12 UNK        -0.0787 
     12 C12        31.2214   -4.0001   -5.5836 C.ar      12 UNK        -0.0862 
     13 C13        30.1240   -4.7795   -5.2138 C.ar      12 UNK        -0.0733 
     14 C14        30.1174   -5.4095   -3.9656 C.ar      12 UNK        -0.0832 
     15 C15        28.9423   -4.9171   -6.1627 C.3       12 UNK         0.0240 
     16 S16        27.5482   -3.8565   -5.6575 S.3       12 UNK        -0.2522 
     17 C17        28.2401   -2.1700   -5.7702 C.3       12 UNK        -0.0967 
     18 CA         27.4907   -1.2687   -6.7774 C.3       5 UNK         0.0660 
     19 N          26.0528   -1.2092   -6.5034 N.am      5 UNK        -0.4015 
     20 C          25.1312   -0.5661   -7.2335 C.2       4 UNK         0.4946 
     21 O          25.3838    0.0311   -8.2807 O.2       4 UNK        -0.5353 
     22 CA         23.7058   -0.5146   -6.6499 C.3       4 UNK         0.0277 
     23 CB         22.8641   -1.6783   -7.1956 C.3       4 UNK        -0.1981 
     24 N          23.6682   -0.5249   -5.1782 N.am      4 UNK        -0.4209 
     25 C          24.2857    0.3694   -4.3896 C.2       3 UNK         0.4942 
     26 O          24.9260    1.3218   -4.8351 O.2       3 UNK        -0.5208 
     27 CA         24.2671    0.1290   -2.8687 C.3       3 UNK         0.0250 
     28 CB         23.2870   -0.9726   -2.4171 C.3       3 UNK        -0.1990 
     29 N          25.6244   -0.2266   -2.4499 N.am      3 UNK        -0.4232 
     30 C          26.5935    0.6499   -2.1466 C.2       2 UNK         0.4993 
     31 O          26.3948    1.8510   -1.9596 O.2       2 UNK        -0.5286 
     32 CA         28.0336    0.0998   -2.0957 C.3       2 UNK         0.0209 
     33 CB         28.9614    0.9140   -1.1684 C.3       2 UNK        -0.1931 
     34 N          28.1071   -1.3420   -1.8144 N.am      2 UNK        -0.4546 
     35 C          27.8313   -1.9642   -0.6574 C.2       1 UNK         0.5154 
     36 O          27.4847   -1.3951    0.3781 O.2       1 UNK        -0.5181 
     37 C          28.1668    0.1185   -6.8325 C.2       5 UNK         0.5014 
     38 O          29.1934    0.2444   -7.5005 O.2       5 UNK        -0.5248 
     39 N          27.5997    1.1407   -6.1706 N.am      6 UNK        -0.4434 
     40 CA         28.0945    2.5181   -6.2500 C.3       6 UNK         0.0363 
     41 CB         27.5040    3.3603   -5.1099 C.3       6 UNK        -0.1936 
     42 C          27.8308    3.1794   -7.6139 C.2       6 UNK         0.5081 
     43 O          28.5451    4.1175   -7.9649 O.2       6 UNK        -0.5248 
     44 N          26.8423    2.6751   -8.3639 N.am      7 UNK        -0.4718 
     45 CA         26.5670    3.0761   -9.7419 C.3       7 UNK         0.0273 
     46 CB         25.0466    3.1714   -9.9541 C.3       7 UNK        -0.1935 
     47 C          27.1928    2.0822  -10.7305 C.2       7 UNK         0.5018 
     48 O          27.8283    2.5102  -11.6938 O.2       7 UNK        -0.5186 
     49 N          26.9943    0.7788  -10.4840 N.am      8 UNK        -0.4240 
     50 CA         27.3846   -0.3020  -11.3916 C.3       8 UNK         0.0235 
     51 CB         26.6349   -1.5883  -11.0071 C.3       8 UNK        -0.2000 
     52 C          28.8988   -0.5594  -11.4571 C.2       8 UNK         0.4941 
     53 O          29.4074   -0.8249  -12.5471 O.2       8 UNK        -0.5273 
     54 N          29.5834   -0.5031  -10.3067 N.am      9 UNK        -0.4262 
     55 CA         31.0073   -0.8335  -10.1707 C.3       9 UNK         0.0264 
     56 CB         31.1383   -2.0317   -9.2135 C.3       9 UNK        -0.1955 
     57 C          31.8569    0.3523   -9.6796 C.2       9 UNK         0.5031 
     58 O          33.0816    0.2267   -9.6435 O.2       9 UNK        -0.5390 
     59 N          31.2078    1.4672   -9.3086 N.am      10 UNK        -0.4204 
     60 CA         31.7807    2.6778   -8.7049 C.3       10 UNK         0.0237 
     61 CB         32.7482    3.3869   -9.6776 C.3       10 UNK        -0.1985 
     62 C          32.3950    2.4327   -7.3099 C.2       10 UNK         0.4970 
     63 O          33.3402    3.1255   -6.9293 O.2       10 UNK        -0.4914 
     64 N          31.8400    1.4673   -6.5648 N.am      11 UNK        -0.4285 
     65 CA         32.2987    1.0611   -5.2231 C.3       11 UNK         0.1007 
     66 C          31.7632    1.9443   -4.0560 C.2       11 UNK         0.5703 
     67 N          31.1046    3.0681   -4.3108 N.am      11 UNK        -0.7361 
     68 O          31.9668    1.6166   -2.8901 O.2       11 UNK        -0.4986 
     69 C69        32.0513   -0.4523   -4.9824 C.3       12 UNK        -0.0947 
     70 S70        33.0376   -1.4741   -6.1269 S.3       12 UNK        -0.2240 
     71 C71        33.4710   -2.9087   -5.0829 C.3       12 UNK         0.0194 
     72 H72        24.9426   -4.1108   -3.9033 H         1 UNK         0.0906 
     73 H73        26.0248   -5.4805   -3.6195 H         1 UNK         0.0906 
     74 H74        24.4501   -5.4257   -2.8342 H         1 UNK         0.0906 
     75 H75        27.7892   -4.5672   -2.5047 H         1 UNK         0.3140 
     76 H76        27.4603   -3.8728    0.2178 H         1 UNK         0.1085 
     77 H77        30.0018   -3.4530   -1.4277 H         1 UNK         0.0836 
     78 H78        29.8871   -3.6188    0.3028 H         1 UNK         0.0836 
     79 H79        31.9992   -5.5123   -1.0854 H         1 UNK         0.0731 
     80 H80        31.4072   -6.9646   -1.8518 H         1 UNK         0.0731 
     81 H81        33.0695   -4.2463   -2.7540 H         1 UNK         0.1312 
     82 H82        31.2386   -3.5416   -6.5617 H         1 UNK         0.1406 
     83 H83        29.2824   -6.0377   -3.6872 H         1 UNK         0.1631 
     84 H84        28.6089   -5.9556   -6.1826 H         1 UNK         0.0717 
     85 H85        29.2310   -4.6683   -7.1852 H         1 UNK         0.0717 
     86 H86        29.2912   -2.2263   -6.0500 H         1 UNK         0.0934 
     87 H87        28.2195   -1.7334   -4.7717 H         1 UNK         0.0934 
     88 H88        27.6051   -1.7108   -7.7682 H         1 UNK         0.0739 
     89 H89        25.7425   -1.7015   -5.6801 H         1 UNK         0.3093 
     90 H90        23.2555    0.4227   -6.9834 H         1 UNK         0.0818 
     91 H91        21.8254   -1.6032   -6.8731 H         1 UNK         0.0819 
     92 H92        22.8621   -1.6791   -8.2868 H         1 UNK         0.0819 
     93 H93        23.2490   -2.6457   -6.8702 H         1 UNK         0.0819 
     94 H94        23.1516   -1.2748   -4.7414 H         1 UNK         0.3041 
     95 H95        23.9663    1.0655   -2.3941 H         1 UNK         0.0784 
     96 H96        22.2621   -0.7316   -2.7030 H         1 UNK         0.0793 
     97 H97        23.5328   -1.9492   -2.8352 H         1 UNK         0.0793 
     98 H98        23.2965   -1.0763   -1.3316 H         1 UNK         0.0793 
     99 H99        25.8756   -1.2012   -2.5192 H         1 UNK         0.3024 
    100 H100       28.4207    0.2267   -3.1081 H         1 UNK         0.1171 
    101 H101       29.9689    0.4983   -1.1499 H         1 UNK         0.0786 
    102 H102       28.5901    0.9465   -0.1441 H         1 UNK         0.0786 
    103 H103       29.0480    1.9453   -1.5130 H         1 UNK         0.0786 
    104 H104       28.3836   -1.9289   -2.5884 H         1 UNK         0.2977 
    105 H105       26.7221    1.0083   -5.6754 H         1 UNK         0.3127 
    106 H106       29.1755    2.4905   -6.1177 H         1 UNK         0.0770 
    107 H107       26.4211    3.4543   -5.1934 H         1 UNK         0.0814 
    108 H108       27.9179    4.3694   -5.1174 H         1 UNK         0.0814 
    109 H109       27.7318    2.9265   -4.1366 H         1 UNK         0.0814 
    110 H110       26.3119    1.8873   -8.0100 H         1 UNK         0.2983 
    111 H111       26.9944    4.0612   -9.9430 H         1 UNK         0.0947 
    112 H112       24.8139    3.4669  -10.9781 H         1 UNK         0.0806 
    113 H113       24.6030    3.9165   -9.2937 H         1 UNK         0.0806 
    114 H114       24.5461    2.2205   -9.7670 H         1 UNK         0.0806 
    115 H115       26.4246    0.5155   -9.6812 H         1 UNK         0.3000 
    116 H116       27.0620   -0.0198  -12.3965 H         1 UNK         0.0850 
    117 H117       26.8722   -2.3996  -11.6968 H         1 UNK         0.0810 
    118 H118       25.5550   -1.4419  -11.0392 H         1 UNK         0.0810 
    119 H119       26.8947   -1.9270  -10.0046 H         1 UNK         0.0810 
    120 H120       29.0991   -0.2761   -9.4452 H         1 UNK         0.3040 
    121 H121       31.4264   -1.1296  -11.1345 H         1 UNK         0.0766 
    122 H122       32.1810   -2.3316   -9.0997 H         1 UNK         0.0812 
    123 H123       30.7580   -1.7952   -8.2200 H         1 UNK         0.0812 
    124 H124       30.5913   -2.8983   -9.5846 H         1 UNK         0.0812 
    125 H125       30.1994    1.4440   -9.3550 H         1 UNK         0.3205 
    126 H126       30.9439    3.3552   -8.5417 H         1 UNK         0.0754 
    127 H127       33.0410    4.3650   -9.2938 H         1 UNK         0.0769 
    128 H128       32.2839    3.5489  -10.6504 H         1 UNK         0.0769 
    129 H129       33.6626    2.8138   -9.8325 H         1 UNK         0.0769 
    130 H130       31.0515    0.9525   -6.9407 H         1 UNK         0.2981 
    131 H131       33.3799    1.2075   -5.1879 H         1 UNK         0.0541 
    132 H132       30.9920    3.3920   -5.2562 H         1 UNK         0.3459 
    133 H133       30.7840    3.6312   -3.5397 H         1 UNK         0.3459 
    134 H134       30.9955   -0.6972   -5.1040 H         1 UNK         0.0612 
    135 H135       32.3176   -0.7342   -3.9622 H         1 UNK         0.0612 
    136 H136       34.1861   -3.5266   -5.6269 H         1 UNK         0.0624 
    137 H137       33.9879   -2.5472   -4.1925 H         1 UNK         0.0624 
@<TRIPOS>BOND
     1    1    2 1    
     2    1   72 1    
     3    1   73 1    
     4    1   74 1    
     5    2    3 2    
     6    2    4 am   BACKBONE|DICT|INTERRES
     7    4    5 1    
     8    4   75 1    
     9    5    6 1    
    10    5   35 1    
    11    5   76 1    
    12    6    7 1    
    13    6   77 1    
    14    6   78 1    
    15    7    8 1    
    16    8    9 1    
    17    8   79 1    
    18    8   80 1    
    19    9   10 ar   
    20    9   14 ar   
    21   10   11 ar   
    22   10   81 1    
    23   11   12 ar   
    24   11   71 1    
    25   12   13 ar   
    26   12   82 1    
    27   13   14 ar   
    28   13   15 1    
    29   14   83 1    
    30   15   16 1    
    31   15   84 1    
    32   15   85 1    
    33   16   17 1    
    34   17   18 1    
    35   17   86 1    
    36   17   87 1    
    37   18   19 1    
    38   18   37 1    
    39   18   88 1    
    40   19   20 am   BACKBONE|DICT|INTERRES
    41   19   89 1    
    42   20   21 2    
    43   20   22 1    
    44   22   23 1    
    45   22   24 1    
    46   22   90 1    
    47   23   91 1    
    48   23   92 1    
    49   23   93 1    
    50   24   25 am   BACKBONE|DICT|INTERRES
    51   24   94 1    
    52   25   26 2    
    53   25   27 1    
    54   27   28 1    
    55   27   29 1    
    56   27   95 1    
    57   28   96 1    
    58   28   97 1    
    59   28   98 1    
    60   29   30 am   BACKBONE|DICT|INTERRES
    61   29   99 1    
    62   30   31 2    
    63   30   32 1    
    64   32   33 1    
    65   32   34 1    
    66   32  100 1    
    67   33  101 1    
    68   33  102 1    
    69   33  103 1    
    70   34   35 am   BACKBONE|DICT|INTERRES
    71   34  104 1    
    72   35   36 2    
    73   37   38 2    
    74   37   39 am   BACKBONE|DICT|INTERRES
    75   39   40 1    
    76   39  105 1    
    77   40   41 1    
    78   40   42 1    
    79   40  106 1    
    80   41  107 1    
    81   41  108 1    
    82   41  109 1    
    83   42   43 2    
    84   42   44 am   BACKBONE|DICT|INTERRES
    85   44   45 1    
    86   44  110 1    
    87   45   46 1    
    88   45   47 1    
    89   45  111 1    
    90   46  112 1    
    91   46  113 1    
    92   46  114 1    
    93   47   48 2    
    94   47   49 am   BACKBONE|DICT|INTERRES
    95   49   50 1    
    96   49  115 1    
    97   50   51 1    
    98   50   52 1    
    99   50  116 1    
   100   51  117 1    
   101   51  118 1    
   102   51  119 1    
   103   52   53 2    
   104   52   54 am   BACKBONE|DICT|INTERRES
   105   54   55 1    
   106   54  120 1    
   107   55   56 1    
   108   55   57 1    
   109   55  121 1    
   110   56  122 1    
   111   56  123 1    
   112   56  124 1    
   113   57   58 2    
   114   57   59 am   BACKBONE|DICT|INTERRES
   115   59   60 1    
   116   59  125 1    
   117   60   61 1    
   118   60   62 1    
   119   60  126 1    
   120   61  127 1    
   121   61  128 1    
   122   61  129 1    
   123   62   63 2    
   124   62   64 am   BACKBONE|DICT|INTERRES
   125   64   65 1    
   126   64  130 1    
   127   65   66 1    
   128   65   69 1    
   129   65  131 1    
   130   66   67 am   BACKBONE|DICT|INTERRES
   131   66   68 2    
   132   67  132 1    
   133   67  133 1    
   134   69   70 1    
   135   69  134 1    
   136   69  135 1    
   137   70   71 1    
   138   71  136 1    
   139   71  137 1    
@<TRIPOS>SUBSTRUCTURE
     1 UNK         1 GROUP             0       ****    0 ROOT    
