@<TRIPOS>MOLECULE
3R137
137   139    1
SMALL
USER_CHARGES


@<TRIPOS>ATOM
      1 CA         24.8369   -6.3767   -1.5698 C.3       0 UNK        -0.2020 
      2 C          25.1009   -5.0132   -0.9501 C.2       0 UNK         0.4855 
      3 O          24.1582   -4.2688   -0.6785 O.2       0 UNK        -0.5197 
      4 N          26.3803   -4.6843   -0.7330 N.am      1 UNK        -0.4892 
      5 CA         26.8943   -3.4245   -0.1815 C.3       1 UNK         0.0835 
      6 C6         28.4409   -3.4496   -0.0075 C.3       12 UNK        -0.0855 
      7 S7         29.3556   -4.3360   -1.3248 S.3       12 UNK        -0.2931 
      8 C8         30.8959   -3.3770   -1.4474 C.3       12 UNK         0.0378 
      9 C9         30.7794   -2.2312   -2.4414 C.ar      12 UNK        -0.0802 
     10 C10        30.8953   -2.4833   -3.8113 C.ar      12 UNK        -0.0944 
     11 C11        30.8427   -1.4354   -4.7341 C.ar      12 UNK        -0.0787 
     12 C12        30.6984   -0.1235   -4.2761 C.ar      12 UNK        -0.0862 
     13 C13        30.5364    0.1398   -2.9108 C.ar      12 UNK        -0.0733 
     14 C14        30.5846   -0.9201   -1.9984 C.ar      12 UNK        -0.0832 
     15 C15        30.3106    1.5621   -2.4047 C.3       12 UNK         0.0240 
     16 S16        29.0048    2.4734   -3.3014 S.3       12 UNK        -0.2522 
     17 C17        27.6064    1.2966   -3.2985 C.3       12 UNK        -0.0967 
     18 CA         27.3862    0.6773   -4.7054 C.3       5 UNK         0.0660 
     19 N          27.0332   -0.7460   -4.6420 N.am      5 UNK        -0.4015 
     20 C          27.0306   -1.5968   -5.6798 C.2       4 UNK         0.4946 
     21 O          27.3290   -1.2731   -6.8293 O.2       4 UNK        -0.5353 
     22 CA         26.5373   -3.0248   -5.4015 C.3       4 UNK         0.0277 
     23 CB         27.6558   -3.8917   -4.8029 C.3       4 UNK        -0.1981 
     24 N          25.3796   -3.0045   -4.5039 N.am      4 UNK        -0.4209 
     25 C          24.1259   -2.7450   -4.9062 C.2       3 UNK         0.4942 
     26 O          23.8005   -2.6310   -6.0874 O.2       3 UNK        -0.5208 
     27 CA         23.0545   -2.5439   -3.8189 C.3       3 UNK         0.0250 
     28 CB         22.3038   -3.8553   -3.5412 C.3       3 UNK        -0.1990 
     29 N          23.6025   -2.0067   -2.5700 N.am      3 UNK        -0.4232 
     30 C          24.0434   -0.7460   -2.4313 C.2       2 UNK         0.4993 
     31 O          23.9710    0.1015   -3.3203 O.2       2 UNK        -0.5286 
     32 CA         24.7226   -0.3705   -1.1011 C.3       2 UNK         0.0209 
     33 CB         23.6996    0.2391   -0.1299 C.3       2 UNK        -0.1931 
     34 N          25.4092   -1.4887   -0.4462 N.am      2 UNK        -0.4546 
     35 C          26.4038   -2.2055   -0.9888 C.2       1 UNK         0.5154 
     36 O          26.8728   -1.9717   -2.1030 O.2       1 UNK        -0.5181 
     37 C          26.4495    1.5330   -5.5877 C.2       5 UNK         0.5014 
     38 O          26.8155    2.6562   -5.9326 O.2       5 UNK        -0.5248 
     39 N          25.3047    0.9844   -6.0191 N.am      6 UNK        -0.4434 
     40 CA         24.4626    1.5343   -7.0857 C.3       6 UNK         0.0363 
     41 CB         23.2016    0.6689   -7.2295 C.3       6 UNK        -0.1936 
     42 C          25.1928    1.6582   -8.4413 C.2       6 UNK         0.5081 
     43 O          24.8257    2.5190   -9.2411 O.2       6 UNK        -0.5248 
     44 N          26.2280    0.8331   -8.6656 N.am      7 UNK        -0.4718 
     45 CA         27.1403    0.9267   -9.8099 C.3       7 UNK         0.0273 
     46 CB         27.7033   -0.4736  -10.1083 C.3       7 UNK        -0.1935 
     47 C          28.2898    1.9320   -9.5873 C.2       7 UNK         0.5018 
     48 O          29.0843    2.1377  -10.5058 O.2       7 UNK        -0.5186 
     49 N          28.3803    2.5285   -8.3883 N.am      8 UNK        -0.4240 
     50 CA         29.4337    3.4361   -7.9262 C.3       8 UNK         0.0235 
     51 CB         29.3535    4.7887   -8.6720 C.3       8 UNK        -0.2000 
     52 C          30.8192    2.7612   -7.9628 C.2       8 UNK         0.4941 
     53 O          30.9499    1.6271   -7.5016 O.2       8 UNK        -0.5273 
     54 N          31.8267    3.4571   -8.5035 N.am      9 UNK        -0.4262 
     55 CA         33.2149    2.9976   -8.5962 C.3       9 UNK         0.0264 
     56 CB         34.1245    4.2213   -8.8028 C.3       9 UNK        -0.1955 
     57 C          33.4699    1.9428   -9.6912 C.2       9 UNK         0.5031 
     58 O          34.5932    1.4424   -9.7740 O.2       9 UNK        -0.5390 
     59 N          32.4608    1.6178  -10.5162 N.am      10 UNK        -0.4204 
     60 CA         32.5701    0.7020  -11.6605 C.3       10 UNK         0.0237 
     61 CB         31.2512    0.6996  -12.4483 C.3       10 UNK        -0.1985 
     62 C          32.9809   -0.7394  -11.3053 C.2       10 UNK         0.4970 
     63 O          33.4885   -1.4421  -12.1806 O.2       10 UNK        -0.4914 
     64 N          32.7776   -1.1513  -10.0467 N.am      11 UNK        -0.4285 
     65 CA         33.2834   -2.4196   -9.5038 C.3       11 UNK         0.1007 
     66 C          34.8246   -2.4646   -9.2695 C.2       11 UNK         0.5703 
     67 N          35.5505   -1.3536   -9.3453 N.am      11 UNK        -0.7361 
     68 O          35.3749   -3.5372   -9.0308 O.2       11 UNK        -0.4986 
     69 C69        32.4775   -2.8755   -8.2602 C.3       12 UNK        -0.0947 
     70 S70        32.6304   -1.7714   -6.8120 S.3       12 UNK        -0.2240 
     71 C71        30.9117   -1.7307   -6.2238 C.3       12 UNK         0.0194 
     72 H72        25.6735   -7.0576   -1.4138 H         1 UNK         0.0906 
     73 H73        23.9499   -6.8282   -1.1263 H         1 UNK         0.0906 
     74 H74        24.6722   -6.2795   -2.6423 H         1 UNK         0.0906 
     75 H75        27.1085   -5.3239   -1.0220 H         1 UNK         0.3140 
     76 H76        26.4688   -3.3331    0.8202 H         1 UNK         0.1085 
     77 H77        28.6809   -3.9544    0.9296 H         1 UNK         0.0836 
     78 H78        28.8372   -2.4385    0.1045 H         1 UNK         0.0836 
     79 H79        31.6951   -4.0466   -1.7691 H         1 UNK         0.0731 
     80 H80        31.1898   -3.0135   -0.4615 H         1 UNK         0.0731 
     81 H81        31.0246   -3.4991   -4.1593 H         1 UNK         0.1312 
     82 H82        30.6746    0.6901   -4.9885 H         1 UNK         0.1406 
     83 H83        30.4798   -0.7248   -0.9400 H         1 UNK         0.1631 
     84 H84        31.2457    2.1173   -2.4879 H         1 UNK         0.0717 
     85 H85        30.0505    1.5553   -1.3450 H         1 UNK         0.0717 
     86 H86        27.8134    0.5222   -2.5588 H         1 UNK         0.0934 
     87 H87        26.7102    1.8069   -2.9403 H         1 UNK         0.0934 
     88 H88        28.3361    0.6943   -5.2404 H         1 UNK         0.0739 
     89 H89        26.8488   -1.1252   -3.7151 H         1 UNK         0.3093 
     90 H90        26.2413   -3.4712   -6.3535 H         1 UNK         0.0818 
     91 H91        28.0532   -3.4662   -3.8818 H         1 UNK         0.0819 
     92 H92        27.3050   -4.8996   -4.5817 H         1 UNK         0.0819 
     93 H93        28.4889   -3.9835   -5.5001 H         1 UNK         0.0819 
     94 H94        25.5808   -3.0280   -3.5124 H         1 UNK         0.3041 
     95 H95        22.3317   -1.8217   -4.2052 H         1 UNK         0.0784 
     96 H96        21.8285   -4.2302   -4.4487 H         1 UNK         0.0793 
     97 H97        22.9706   -4.6361   -3.1788 H         1 UNK         0.0793 
     98 H98        21.5182   -3.7139   -2.7987 H         1 UNK         0.0793 
     99 H99        23.7113   -2.6567   -1.7958 H         1 UNK         0.3024 
    100 H100       25.4737    0.3886   -1.3260 H         1 UNK         0.1171 
    101 H101       24.1807    0.6009    0.7791 H         1 UNK         0.0786 
    102 H102       23.1893    1.0898   -0.5841 H         1 UNK         0.0786 
    103 H103       22.9352   -0.4839    0.1580 H         1 UNK         0.0786 
    104 H104       25.0398   -1.7775    0.4487 H         1 UNK         0.2977 
    105 H105       25.0390    0.0830   -5.6482 H         1 UNK         0.3127 
    106 H106       24.1597    2.5383   -6.7816 H         1 UNK         0.0770 
    107 H107       23.4441   -0.3443   -7.5524 H         1 UNK         0.0814 
    108 H108       22.5211    1.0922   -7.9695 H         1 UNK         0.0814 
    109 H109       22.6560    0.5999   -6.2879 H         1 UNK         0.0814 
    110 H110       26.4713    0.1408   -7.9612 H         1 UNK         0.2983 
    111 H111       26.5817    1.2623  -10.6863 H         1 UNK         0.0947 
    112 H112       28.2931   -0.4704  -11.0251 H         1 UNK         0.0806 
    113 H113       26.9054   -1.2042  -10.2417 H         1 UNK         0.0806 
    114 H114       28.3515   -0.8270   -9.3051 H         1 UNK         0.0806 
    115 H115       27.6782    2.3118   -7.6892 H         1 UNK         0.3000 
    116 H116       29.2259    3.6283   -6.8724 H         1 UNK         0.0850 
    117 H117       30.0332    5.5238   -8.2393 H         1 UNK         0.0810 
    118 H118       28.3507    5.2106   -8.6009 H         1 UNK         0.0810 
    119 H119       29.5919    4.6919   -9.7320 H         1 UNK         0.0810 
    120 H120       31.6281    4.3748   -8.8758 H         1 UNK         0.3040 
    121 H121       33.4834    2.5338   -7.6445 H         1 UNK         0.0766 
    122 H122       34.0096    4.9435   -7.9942 H         1 UNK         0.0812 
    123 H123       33.9095    4.7303   -9.7432 H         1 UNK         0.0812 
    124 H124       35.1758    3.9301   -8.8239 H         1 UNK         0.0812 
    125 H125       31.5565    2.0472  -10.3663 H         1 UNK         0.3205 
    126 H126       33.3501    1.1011  -12.3122 H         1 UNK         0.0754 
    127 H127       31.3410    0.1066  -13.3596 H         1 UNK         0.0769 
    128 H128       30.9593    1.7072  -12.7455 H         1 UNK         0.0769 
    129 H129       30.4375    0.2721  -11.8628 H         1 UNK         0.0769 
    130 H130       32.3723   -0.5113   -9.3793 H         1 UNK         0.2981 
    131 H131       33.0993   -3.1765  -10.2688 H         1 UNK         0.0541 
    132 H132       35.1193   -0.4540   -9.5328 H         1 UNK         0.3459 
    133 H133       36.5452   -1.4078   -9.1969 H         1 UNK         0.3459 
    134 H134       31.4257   -2.9645   -8.5363 H         1 UNK         0.0612 
    135 H135       32.7848   -3.8773   -7.9550 H         1 UNK         0.0612 
    136 H136       30.4304   -2.6896   -6.4203 H         1 UNK         0.0624 
    137 H137       30.3508   -0.9852   -6.7900 H         1 UNK         0.0624 
@<TRIPOS>BOND
     1    1    2 1    
     2    1   72 1    
     3    1   73 1    
     4    1   74 1    
     5    2    3 2    
     6    2    4 am   BACKBONE|DICT|INTERRES
     7    4    5 1    
     8    4   75 1    
     9    5    6 1    
    10    5   35 1    
    11    5   76 1    
    12    6    7 1    
    13    6   77 1    
    14    6   78 1    
    15    7    8 1    
    16    8    9 1    
    17    8   79 1    
    18    8   80 1    
    19    9   10 ar   
    20    9   14 ar   
    21   10   11 ar   
    22   10   81 1    
    23   11   12 ar   
    24   11   71 1    
    25   12   13 ar   
    26   12   82 1    
    27   13   14 ar   
    28   13   15 1    
    29   14   83 1    
    30   15   16 1    
    31   15   84 1    
    32   15   85 1    
    33   16   17 1    
    34   17   18 1    
    35   17   86 1    
    36   17   87 1    
    37   18   19 1    
    38   18   37 1    
    39   18   88 1    
    40   19   20 am   BACKBONE|DICT|INTERRES
    41   19   89 1    
    42   20   21 2    
    43   20   22 1    
    44   22   23 1    
    45   22   24 1    
    46   22   90 1    
    47   23   91 1    
    48   23   92 1    
    49   23   93 1    
    50   24   25 am   BACKBONE|DICT|INTERRES
    51   24   94 1    
    52   25   26 2    
    53   25   27 1    
    54   27   28 1    
    55   27   29 1    
    56   27   95 1    
    57   28   96 1    
    58   28   97 1    
    59   28   98 1    
    60   29   30 am   BACKBONE|DICT|INTERRES
    61   29   99 1    
    62   30   31 2    
    63   30   32 1    
    64   32   33 1    
    65   32   34 1    
    66   32  100 1    
    67   33  101 1    
    68   33  102 1    
    69   33  103 1    
    70   34   35 am   BACKBONE|DICT|INTERRES
    71   34  104 1    
    72   35   36 2    
    73   37   38 2    
    74   37   39 am   BACKBONE|DICT|INTERRES
    75   39   40 1    
    76   39  105 1    
    77   40   41 1    
    78   40   42 1    
    79   40  106 1    
    80   41  107 1    
    81   41  108 1    
    82   41  109 1    
    83   42   43 2    
    84   42   44 am   BACKBONE|DICT|INTERRES
    85   44   45 1    
    86   44  110 1    
    87   45   46 1    
    88   45   47 1    
    89   45  111 1    
    90   46  112 1    
    91   46  113 1    
    92   46  114 1    
    93   47   48 2    
    94   47   49 am   BACKBONE|DICT|INTERRES
    95   49   50 1    
    96   49  115 1    
    97   50   51 1    
    98   50   52 1    
    99   50  116 1    
   100   51  117 1    
   101   51  118 1    
   102   51  119 1    
   103   52   53 2    
   104   52   54 am   BACKBONE|DICT|INTERRES
   105   54   55 1    
   106   54  120 1    
   107   55   56 1    
   108   55   57 1    
   109   55  121 1    
   110   56  122 1    
   111   56  123 1    
   112   56  124 1    
   113   57   58 2    
   114   57   59 am   BACKBONE|DICT|INTERRES
   115   59   60 1    
   116   59  125 1    
   117   60   61 1    
   118   60   62 1    
   119   60  126 1    
   120   61  127 1    
   121   61  128 1    
   122   61  129 1    
   123   62   63 2    
   124   62   64 am   BACKBONE|DICT|INTERRES
   125   64   65 1    
   126   64  130 1    
   127   65   66 1    
   128   65   69 1    
   129   65  131 1    
   130   66   67 am   BACKBONE|DICT|INTERRES
   131   66   68 2    
   132   67  132 1    
   133   67  133 1    
   134   69   70 1    
   135   69  134 1    
   136   69  135 1    
   137   70   71 1    
   138   71  136 1    
   139   71  137 1    
@<TRIPOS>SUBSTRUCTURE
     1 UNK         1 GROUP             0       ****    0 ROOT    
