@<TRIPOS>MOLECULE
3R137
137   139    1
SMALL
USER_CHARGES


@<TRIPOS>ATOM
      1 CA         30.1304   -2.2344    2.5924 C.3       0 UNK        -0.2020 
      2 C          29.4861   -2.2528    1.2144 C.2       0 UNK         0.4855 
      3 O          29.4526   -1.2227    0.5408 O.2       0 UNK        -0.5197 
      4 N          28.9849   -3.4178    0.7868 N.am      1 UNK        -0.4892 
      5 CA         28.2921   -3.6084   -0.4916 C.3       1 UNK         0.0835 
      6 C6         28.1838   -5.1108   -0.8636 C.3       12 UNK        -0.0855 
      7 S7         29.7427   -6.0687   -1.0025 S.3       12 UNK        -0.2931 
      8 C8         31.0540   -4.8691   -1.4496 C.3       12 UNK         0.0378 
      9 C9         30.8063   -4.0478   -2.7160 C.ar      12 UNK        -0.0802 
     10 C10        31.4903   -2.8368   -2.8714 C.ar      12 UNK        -0.0944 
     11 C11        31.2699   -2.0274   -3.9899 C.ar      12 UNK        -0.0787 
     12 C12        30.3475   -2.4326   -4.9564 C.ar      12 UNK        -0.0862 
     13 C13        29.6609   -3.6408   -4.8202 C.ar      12 UNK        -0.0733 
     14 C14        29.9094   -4.4539   -3.7128 C.ar      12 UNK        -0.0832 
     15 C15        28.6429   -4.0631   -5.8638 C.3       12 UNK         0.0240 
     16 S16        26.9460   -3.7506   -5.2809 S.3       12 UNK        -0.2522 
     17 C17        26.0608   -3.7151   -6.8769 C.3       12 UNK        -0.0967 
     18 CA         25.6602   -2.3082   -7.3958 C.3       5 UNK         0.0660 
     19 N          24.5409   -1.7165   -6.6597 N.am      5 UNK        -0.4015 
     20 C          23.5839   -0.9796   -7.2452 C.2       4 UNK         0.4946 
     21 O          23.5170   -0.7774   -8.4584 O.2       4 UNK        -0.5353 
     22 CA         22.5176   -0.3485   -6.3348 C.3       4 UNK         0.0277 
     23 CB         21.3875   -1.3516   -6.0515 C.3       4 UNK        -0.1981 
     24 N          23.0488    0.1580   -5.0696 N.am      4 UNK        -0.4209 
     25 C          23.9624    1.1321   -4.9492 C.2       3 UNK         0.4942 
     26 O          24.4719    1.7236   -5.9004 O.2       3 UNK        -0.5208 
     27 CA         24.4083    1.4772   -3.5181 C.3       3 UNK         0.0250 
     28 CB         23.4947    2.5575   -2.9175 C.3       3 UNK        -0.1990 
     29 N          24.4544    0.3172   -2.6197 N.am      3 UNK        -0.4232 
     30 C          25.2099   -0.7721   -2.8166 C.2       2 UNK         0.4993 
     31 O          25.9316   -0.9411   -3.8025 O.2       2 UNK        -0.5286 
     32 CA         25.0949   -1.8823   -1.7713 C.3       2 UNK         0.0209 
     33 CB         24.0611   -2.9336   -2.2116 C.3       2 UNK        -0.1931 
     34 N          26.4000   -2.5173   -1.6138 N.am      2 UNK        -0.4546 
     35 C          26.8857   -2.9752   -0.4545 C.2       1 UNK         0.5154 
     36 O          26.2541   -2.9493    0.6064 O.2       1 UNK        -0.5181 
     37 C          26.8355   -1.3160   -7.4968 C.2       5 UNK         0.5014 
     38 O          27.4639   -1.2465   -8.5534 O.2       5 UNK        -0.5248 
     39 N          27.0958   -0.5395   -6.4299 N.am      6 UNK        -0.4434 
     40 CA         28.1630    0.4658   -6.3728 C.3       6 UNK         0.0363 
     41 CB         28.2744    1.0477   -4.9576 C.3       6 UNK        -0.1936 
     42 C          28.0255    1.5809   -7.4202 C.2       6 UNK         0.5081 
     43 O          29.0420    2.0729   -7.9039 O.2       6 UNK        -0.5248 
     44 N          26.7881    1.9087   -7.8151 N.am      7 UNK        -0.4718 
     45 CA         26.4740    2.8127   -8.9264 C.3       7 UNK         0.0273 
     46 CB         24.9509    3.0116   -8.9891 C.3       7 UNK        -0.1935 
     47 C          27.0104    2.3550  -10.3002 C.2       7 UNK         0.5018 
     48 O          27.1367    3.1935  -11.1937 O.2       7 UNK        -0.5186 
     49 N          27.3106    1.0570  -10.4517 N.am      8 UNK        -0.4240 
     50 CA         27.8548    0.4499  -11.6673 C.3       8 UNK         0.0235 
     51 CB         26.9107   -0.6861  -12.1012 C.3       8 UNK        -0.2000 
     52 C          29.2904   -0.0772  -11.4753 C.2       8 UNK         0.4941 
     53 O          29.8341   -0.6553  -12.4184 O.2       8 UNK        -0.5273 
     54 N          29.8823    0.1024  -10.2863 N.am      9 UNK        -0.4262 
     55 CA         31.2189   -0.3843   -9.9394 C.3       9 UNK         0.0264 
     56 CB         31.1644   -1.0074   -8.5337 C.3       9 UNK        -0.1955 
     57 C          32.2296    0.7689   -9.9545 C.2       9 UNK         0.5031 
     58 O          31.8426    1.9327   -9.8283 O.2       9 UNK        -0.5390 
     59 N          33.5228    0.4239  -10.0282 N.am      10 UNK        -0.4204 
     60 CA         34.6404    1.3692   -9.8954 C.3       10 UNK         0.0237 
     61 CB         35.9620    0.6516  -10.2145 C.3       10 UNK        -0.1985 
     62 C          34.7062    2.0349   -8.5067 C.2       10 UNK         0.4970 
     63 O          35.1011    3.1970   -8.4093 O.2       10 UNK        -0.4914 
     64 N          34.2890    1.2935   -7.4731 N.am      11 UNK        -0.4285 
     65 CA         34.0686    1.7775   -6.1033 C.3       11 UNK         0.1007 
     66 C          32.7056    2.5018   -5.8860 C.2       11 UNK         0.5703 
     67 N          31.8621    2.6655   -6.8974 N.am      11 UNK        -0.7361 
     68 O          32.4098    2.9323   -4.7740 O.2       11 UNK        -0.4986 
     69 C69        34.3213    0.6538   -5.0608 C.3       12 UNK        -0.0947 
     70 S70        33.3755   -0.8827   -5.3534 S.3       12 UNK        -0.2240 
     71 C71        32.0208   -0.7143   -4.1515 C.3       12 UNK         0.0194 
     72 H72        31.1710   -1.9201    2.5158 H         1 UNK         0.0906 
     73 H73        29.6086   -1.5309    3.2407 H         1 UNK         0.0906 
     74 H74        30.1068   -3.2150    3.0674 H         1 UNK         0.0906 
     75 H75        29.0181   -4.2288    1.3880 H         1 UNK         0.3140 
     76 H76        28.8527   -3.0795   -1.2625 H         1 UNK         0.1085 
     77 H77        27.6638   -5.2158   -1.8181 H         1 UNK         0.0836 
     78 H78        27.5561   -5.6289   -0.1355 H         1 UNK         0.0836 
     79 H79        31.2214   -4.2034   -0.6024 H         1 UNK         0.0731 
     80 H80        31.9843   -5.4223   -1.5833 H         1 UNK         0.0731 
     81 H81        32.1939   -2.5185   -2.1139 H         1 UNK         0.1312 
     82 H82        30.1726   -1.8107   -5.8204 H         1 UNK         0.1406 
     83 H83        29.3773   -5.3904   -3.6252 H         1 UNK         0.1631 
     84 H84        28.7581   -5.1231   -6.0947 H         1 UNK         0.0717 
     85 H85        28.8220   -3.5226   -6.7947 H         1 UNK         0.0717 
     86 H86        26.6658   -4.2213   -7.6315 H         1 UNK         0.0934 
     87 H87        25.1669   -4.3325   -6.7760 H         1 UNK         0.0934 
     88 H88        25.3308   -2.4730   -8.4245 H         1 UNK         0.0739 
     89 H89        24.5609   -1.8052   -5.6531 H         1 UNK         0.3093 
     90 H90        22.0922    0.5017   -6.8727 H         1 UNK         0.0818 
     91 H91        20.5752   -0.8876   -5.4917 H         1 UNK         0.0819 
     92 H92        20.9608   -1.7305   -6.9815 H         1 UNK         0.0819 
     93 H93        21.7410   -2.2117   -5.4814 H         1 UNK         0.0819 
     94 H94        22.6905   -0.2616   -4.2245 H         1 UNK         0.3041 
     95 H95        25.4171    1.8869   -3.5767 H         1 UNK         0.0784 
     96 H96        22.4704    2.2024   -2.7971 H         1 UNK         0.0793 
     97 H97        23.8544    2.8849   -1.9418 H         1 UNK         0.0793 
     98 H98        23.4603    3.4393   -3.5594 H         1 UNK         0.0793 
     99 H99        23.8790    0.3693   -1.7909 H         1 UNK         0.3024 
    100 H100       24.7806   -1.4366   -0.8244 H         1 UNK         0.1171 
    101 H101       23.0755   -2.4861   -2.3454 H         1 UNK         0.0786 
    102 H102       23.9589   -3.7230   -1.4667 H         1 UNK         0.0786 
    103 H103       24.3410   -3.4016   -3.1567 H         1 UNK         0.0786 
    104 H104       26.9655   -2.5289   -2.4547 H         1 UNK         0.2977 
    105 H105       26.5725   -0.6879   -5.5691 H         1 UNK         0.3127 
    106 H106       29.0953   -0.0500   -6.5911 H         1 UNK         0.0770 
    107 H107       27.3776    1.6003   -4.6831 H         1 UNK         0.0814 
    108 H108       29.1177    1.7361   -4.8858 H         1 UNK         0.0814 
    109 H109       28.4313    0.2640   -4.2159 H         1 UNK         0.0814 
    110 H110       25.9994    1.5132   -7.3130 H         1 UNK         0.2983 
    111 H111       26.9394    3.7761   -8.7077 H         1 UNK         0.0947 
    112 H112       24.6738    3.6804   -9.8053 H         1 UNK         0.0806 
    113 H113       24.5709    3.4537   -8.0679 H         1 UNK         0.0806 
    114 H114       24.4286    2.0668   -9.1470 H         1 UNK         0.0806 
    115 H115       27.2014    0.4289   -9.6606 H         1 UNK         0.3000 
    116 H116       27.8976    1.1833  -12.4750 H         1 UNK         0.0850 
    117 H117       27.2474   -1.1462  -13.0312 H         1 UNK         0.0810 
    118 H118       25.8994   -0.3169  -12.2724 H         1 UNK         0.0810 
    119 H119       26.8570   -1.4728  -11.3474 H         1 UNK         0.0810 
    120 H120       29.4311    0.6878   -9.5931 H         1 UNK         0.3040 
    121 H121       31.5416   -1.1496  -10.6484 H         1 UNK         0.0766 
    122 H122       32.0875   -1.5401   -8.3029 H         1 UNK         0.0812 
    123 H123       30.3480   -1.7249   -8.4460 H         1 UNK         0.0812 
    124 H124       31.0309   -0.2472   -7.7636 H         1 UNK         0.0812 
    125 H125       33.7631   -0.5517  -10.1358 H         1 UNK         0.3205 
    126 H126       34.4949    2.1625  -10.6319 H         1 UNK         0.0754 
    127 H127       36.1549   -0.1700   -9.5233 H         1 UNK         0.0769 
    128 H128       35.9598    0.2467  -11.2268 H         1 UNK         0.0769 
    129 H129       36.8056    1.3401  -10.1454 H         1 UNK         0.0769 
    130 H130       33.9878    0.3466   -7.6458 H         1 UNK         0.2981 
    131 H131       34.8181    2.5465   -5.9078 H         1 UNK         0.0541 
    132 H132       32.0783    2.3493   -7.8344 H         1 UNK         0.3459 
    133 H133       30.9705    3.1059   -6.7348 H         1 UNK         0.3459 
    134 H134       34.1469    1.0127   -4.0450 H         1 UNK         0.0612 
    135 H135       35.3777    0.3829   -5.0871 H         1 UNK         0.0612 
    136 H136       32.4215   -0.3895   -3.1901 H         1 UNK         0.0624 
    137 H137       31.3358    0.0673   -4.4838 H         1 UNK         0.0624 
@<TRIPOS>BOND
     1    1    2 1    
     2    1   72 1    
     3    1   73 1    
     4    1   74 1    
     5    2    3 2    
     6    2    4 am   BACKBONE|DICT|INTERRES
     7    4    5 1    
     8    4   75 1    
     9    5    6 1    
    10    5   35 1    
    11    5   76 1    
    12    6    7 1    
    13    6   77 1    
    14    6   78 1    
    15    7    8 1    
    16    8    9 1    
    17    8   79 1    
    18    8   80 1    
    19    9   10 ar   
    20    9   14 ar   
    21   10   11 ar   
    22   10   81 1    
    23   11   12 ar   
    24   11   71 1    
    25   12   13 ar   
    26   12   82 1    
    27   13   14 ar   
    28   13   15 1    
    29   14   83 1    
    30   15   16 1    
    31   15   84 1    
    32   15   85 1    
    33   16   17 1    
    34   17   18 1    
    35   17   86 1    
    36   17   87 1    
    37   18   19 1    
    38   18   37 1    
    39   18   88 1    
    40   19   20 am   BACKBONE|DICT|INTERRES
    41   19   89 1    
    42   20   21 2    
    43   20   22 1    
    44   22   23 1    
    45   22   24 1    
    46   22   90 1    
    47   23   91 1    
    48   23   92 1    
    49   23   93 1    
    50   24   25 am   BACKBONE|DICT|INTERRES
    51   24   94 1    
    52   25   26 2    
    53   25   27 1    
    54   27   28 1    
    55   27   29 1    
    56   27   95 1    
    57   28   96 1    
    58   28   97 1    
    59   28   98 1    
    60   29   30 am   BACKBONE|DICT|INTERRES
    61   29   99 1    
    62   30   31 2    
    63   30   32 1    
    64   32   33 1    
    65   32   34 1    
    66   32  100 1    
    67   33  101 1    
    68   33  102 1    
    69   33  103 1    
    70   34   35 am   BACKBONE|DICT|INTERRES
    71   34  104 1    
    72   35   36 2    
    73   37   38 2    
    74   37   39 am   BACKBONE|DICT|INTERRES
    75   39   40 1    
    76   39  105 1    
    77   40   41 1    
    78   40   42 1    
    79   40  106 1    
    80   41  107 1    
    81   41  108 1    
    82   41  109 1    
    83   42   43 2    
    84   42   44 am   BACKBONE|DICT|INTERRES
    85   44   45 1    
    86   44  110 1    
    87   45   46 1    
    88   45   47 1    
    89   45  111 1    
    90   46  112 1    
    91   46  113 1    
    92   46  114 1    
    93   47   48 2    
    94   47   49 am   BACKBONE|DICT|INTERRES
    95   49   50 1    
    96   49  115 1    
    97   50   51 1    
    98   50   52 1    
    99   50  116 1    
   100   51  117 1    
   101   51  118 1    
   102   51  119 1    
   103   52   53 2    
   104   52   54 am   BACKBONE|DICT|INTERRES
   105   54   55 1    
   106   54  120 1    
   107   55   56 1    
   108   55   57 1    
   109   55  121 1    
   110   56  122 1    
   111   56  123 1    
   112   56  124 1    
   113   57   58 2    
   114   57   59 am   BACKBONE|DICT|INTERRES
   115   59   60 1    
   116   59  125 1    
   117   60   61 1    
   118   60   62 1    
   119   60  126 1    
   120   61  127 1    
   121   61  128 1    
   122   61  129 1    
   123   62   63 2    
   124   62   64 am   BACKBONE|DICT|INTERRES
   125   64   65 1    
   126   64  130 1    
   127   65   66 1    
   128   65   69 1    
   129   65  131 1    
   130   66   67 am   BACKBONE|DICT|INTERRES
   131   66   68 2    
   132   67  132 1    
   133   67  133 1    
   134   69   70 1    
   135   69  134 1    
   136   69  135 1    
   137   70   71 1    
   138   71  136 1    
   139   71  137 1    
@<TRIPOS>SUBSTRUCTURE
     1 UNK         1 GROUP             0       ****    0 ROOT    
