@<TRIPOS>MOLECULE
3R137
137   139    1
SMALL
USER_CHARGES


@<TRIPOS>ATOM
      1 CA         25.4912   -3.4975    1.9830 C.3       0 UNK        -0.2020 
      2 C          26.3815   -2.5634    1.1770 C.2       0 UNK         0.4855 
      3 O          26.8364   -1.5463    1.7022 O.2       0 UNK        -0.5197 
      4 N          26.6418   -2.9065   -0.0902 N.am      1 UNK        -0.4892 
      5 CA         27.4277   -2.1009   -1.0318 C.3       1 UNK         0.0835 
      6 C6         27.8675   -2.9273   -2.2667 C.3       12 UNK        -0.0855 
      7 S7         28.8898   -4.3747   -1.8222 S.3       12 UNK        -0.2931 
      8 C8         30.5827   -3.7881   -2.2023 C.3       12 UNK         0.0378 
      9 C9         30.9122   -3.5672   -3.6828 C.ar      12 UNK        -0.0802 
     10 C10        32.1221   -2.9415   -4.0084 C.ar      12 UNK        -0.0944 
     11 C11        32.4702   -2.6891   -5.3400 C.ar      12 UNK        -0.0787 
     12 C12        31.5858   -3.0663   -6.3563 C.ar      12 UNK        -0.0862 
     13 C13        30.3759   -3.6921   -6.0521 C.ar      12 UNK        -0.0733 
     14 C14        30.0541   -3.9584   -4.7196 C.ar      12 UNK        -0.0832 
     15 C15        29.4081   -4.0559   -7.1669 C.3       12 UNK         0.0240 
     16 S16        28.5552   -2.5801   -7.8049 S.3       12 UNK        -0.2522 
     17 C17        27.4105   -2.1687   -6.4408 C.3       12 UNK        -0.0967 
     18 CA         25.9185   -2.3881   -6.7845 C.3       5 UNK         0.0660 
     19 N          25.0848   -2.0721   -5.6295 N.am      5 UNK        -0.4015 
     20 C          23.9506   -2.7082   -5.3061 C.2       4 UNK         0.4946 
     21 O          23.5389   -3.7106   -5.8922 O.2       4 UNK        -0.5353 
     22 CA         23.1247   -2.1396   -4.1353 C.3       4 UNK         0.0277 
     23 CB         23.3681   -2.9612   -2.8588 C.3       4 UNK        -0.1981 
     24 N          23.4037   -0.7227   -3.8777 N.am      4 UNK        -0.4209 
     25 C          23.0237    0.2694   -4.7001 C.2       3 UNK         0.4942 
     26 O          22.2774    0.0939   -5.6643 O.2       3 UNK        -0.5208 
     27 CA         23.5586    1.6922   -4.4369 C.3       3 UNK         0.0250 
     28 CB         22.4230    2.6170   -3.9669 C.3       3 UNK        -0.1990 
     29 N          24.6680    1.7864   -3.4831 N.am      3 UNK        -0.4232 
     30 C          25.8751    1.2197   -3.6122 C.2       2 UNK         0.4993 
     31 O          26.1911    0.4936   -4.5562 O.2       2 UNK        -0.5286 
     32 CA         26.8877    1.4498   -2.4712 C.3       2 UNK         0.0209 
     33 CB         26.3667    2.3499   -1.3267 C.3       2 UNK        -0.1931 
     34 N          27.3872    0.1817   -1.9226 N.am      2 UNK        -0.4546 
     35 C          26.6472   -0.8456   -1.4779 C.2       1 UNK         0.5154 
     36 O          25.4122   -0.8419   -1.4540 O.2       1 UNK        -0.5181 
     37 C          25.4619   -1.5055   -7.9615 C.2       5 UNK         0.5014 
     38 O          25.2432   -0.3056   -7.7787 O.2       5 UNK        -0.5248 
     39 N          25.3960   -2.0941   -9.1641 N.am      6 UNK        -0.4434 
     40 CA         25.0816   -1.3983  -10.4185 C.3       6 UNK         0.0363 
     41 CB         24.8967   -2.4324  -11.5405 C.3       6 UNK        -0.1936 
     42 C          26.1347   -0.3482  -10.8240 C.2       6 UNK         0.5081 
     43 O          25.7916    0.6217  -11.4994 O.2       6 UNK        -0.5248 
     44 N          27.3848   -0.5430  -10.3823 N.am      7 UNK        -0.4718 
     45 CA         28.5000    0.3920  -10.5537 C.3       7 UNK         0.0273 
     46 CB         29.7948   -0.4147  -10.7672 C.3       7 UNK        -0.1935 
     47 C          28.6409    1.3678   -9.3678 C.2       7 UNK         0.5018 
     48 O          29.6930    1.9956   -9.2372 O.2       7 UNK        -0.5186 
     49 N          27.6244    1.4438   -8.4901 N.am      8 UNK        -0.4240 
     50 CA         27.5368    2.2939   -7.2905 C.3       8 UNK         0.0235 
     51 CB         27.4153    3.7785   -7.6924 C.3       8 UNK        -0.2000 
     52 C          28.6645    2.0585   -6.2630 C.2       8 UNK         0.4941 
     53 O          28.9457    2.9391   -5.4485 O.2       8 UNK        -0.5273 
     54 N          29.2926    0.8766   -6.3375 N.am      9 UNK        -0.4262 
     55 CA         30.4617    0.4262   -5.5837 C.3       9 UNK         0.0264 
     56 CB         30.1329    0.2662   -4.0879 C.3       9 UNK        -0.1955 
     57 C          31.7244    1.2687   -5.8471 C.2       9 UNK         0.5031 
     58 O          32.5497    1.4249   -4.9452 O.2       9 UNK        -0.5390 
     59 N          31.8724    1.7796   -7.0795 N.am      10 UNK        -0.4204 
     60 CA         33.0543    2.5257   -7.5147 C.3       10 UNK         0.0237 
     61 CB         32.7397    3.2816   -8.8162 C.3       10 UNK        -0.1985 
     62 C          34.2964    1.6331   -7.6869 C.2       10 UNK         0.4970 
     63 O          35.3695    2.0052   -7.2113 O.2       10 UNK        -0.4914 
     64 N          34.1312    0.4917   -8.3759 N.am      11 UNK        -0.4285 
     65 CA         35.2039   -0.4515   -8.7592 C.3       11 UNK         0.1007 
     66 C          36.3200    0.1635   -9.6656 C.2       11 UNK         0.5703 
     67 N          36.0585    1.2497  -10.3842 N.am      11 UNK        -0.7361 
     68 O          37.4258   -0.3650   -9.7569 O.2       11 UNK        -0.4986 
     69 C69        35.7559   -1.2650   -7.5459 C.3       12 UNK        -0.0947 
     70 S70        34.6504   -2.6421   -7.0931 S.3       12 UNK        -0.2240 
     71 C71        33.7638   -1.9459   -5.6649 C.3       12 UNK         0.0194 
     72 H72        26.0243   -3.8593    2.8618 H         1 UNK         0.0906 
     73 H73        24.5998   -2.9681    2.3185 H         1 UNK         0.0906 
     74 H74        25.1726   -4.3617    1.4002 H         1 UNK         0.0906 
     75 H75        26.2427   -3.7524   -0.4702 H         1 UNK         0.3140 
     76 H76        28.3248   -1.7622   -0.5081 H         1 UNK         0.1085 
     77 H77        28.4244   -2.3064   -2.9692 H         1 UNK         0.0836 
     78 H78        26.9952   -3.2862   -2.8166 H         1 UNK         0.0836 
     79 H79        31.2885   -4.5173   -1.8024 H         1 UNK         0.0731 
     80 H80        30.7556   -2.8610   -1.6533 H         1 UNK         0.0731 
     81 H81        32.7907   -2.6327   -3.2161 H         1 UNK         0.1312 
     82 H82        31.8241   -2.8505   -7.3888 H         1 UNK         0.1406 
     83 H83        29.1198   -4.4542   -4.5008 H         1 UNK         0.1631 
     84 H84        28.6725   -4.7880   -6.8298 H         1 UNK         0.0717 
     85 H85        29.9576   -4.5268   -7.9833 H         1 UNK         0.0717 
     86 H86        27.6663   -2.7613   -5.5631 H         1 UNK         0.0934 
     87 H87        27.5785   -1.1341   -6.1452 H         1 UNK         0.0934 
     88 H88        25.7842   -3.4381   -7.0539 H         1 UNK         0.0739 
     89 H89        25.3174   -1.2033   -5.1556 H         1 UNK         0.3093 
     90 H90        22.0694   -2.2339   -4.4004 H         1 UNK         0.0818 
     91 H91        24.4242   -2.9913   -2.5917 H         1 UNK         0.0819 
     92 H92        22.8174   -2.5556   -2.0099 H         1 UNK         0.0819 
     93 H93        23.0415   -3.9930   -2.9949 H         1 UNK         0.0819 
     94 H94        24.0143   -0.5128   -3.0950 H         1 UNK         0.3041 
     95 H95        23.9283    2.0647   -5.3948 H         1 UNK         0.0784 
     96 H96        21.5923    2.6093   -4.6741 H         1 UNK         0.0793 
     97 H97        22.0281    2.3091   -2.9978 H         1 UNK         0.0793 
     98 H98        22.7602    3.6502   -3.8814 H         1 UNK         0.0793 
     99 H99        24.4924    2.3284   -2.6494 H         1 UNK         0.3024 
    100 H100       27.7372    1.9569   -2.9317 H         1 UNK         0.1171 
    101 H101       27.1432    2.5141   -0.5794 H         1 UNK         0.0786 
    102 H102       26.0733    3.3342   -1.6943 H         1 UNK         0.0786 
    103 H103       25.5103    1.9105   -0.8132 H         1 UNK         0.0786 
    104 H104       28.3918    0.0807   -1.9214 H         1 UNK         0.2977 
    105 H105       25.6079   -3.0795   -9.2359 H         1 UNK         0.3127 
    106 H106       24.1351   -0.8716  -10.2782 H         1 UNK         0.0770 
    107 H107       25.8072   -3.0071  -11.7153 H         1 UNK         0.0814 
    108 H108       24.6347   -1.9445  -12.4806 H         1 UNK         0.0814 
    109 H109       24.0946   -3.1330  -11.3079 H         1 UNK         0.0814 
    110 H110       27.5717   -1.3662   -9.8249 H         1 UNK         0.2983 
    111 H111       28.3329    1.0006  -11.4451 H         1 UNK         0.0947 
    112 H112       30.6333    0.2429  -11.0004 H         1 UNK         0.0806 
    113 H113       29.6951   -1.1115  -11.5996 H         1 UNK         0.0806 
    114 H114       30.0685   -0.9878   -9.8811 H         1 UNK         0.0806 
    115 H115       26.8150    0.8522   -8.6456 H         1 UNK         0.3000 
    116 H116       26.6108    2.0095   -6.7884 H         1 UNK         0.0850 
    117 H117       27.2081    4.4051   -6.8240 H         1 UNK         0.0810 
    118 H118       26.6015    3.9321   -8.4011 H         1 UNK         0.0810 
    119 H119       28.3338    4.1487   -8.1492 H         1 UNK         0.0810 
    120 H120       28.9702    0.2397   -7.0516 H         1 UNK         0.3040 
    121 H121       30.6832   -0.5652   -5.9723 H         1 UNK         0.0766 
    122 H122       29.2354   -0.3350   -3.9571 H         1 UNK         0.0812 
    123 H123       29.9777    1.2305   -3.6043 H         1 UNK         0.0812 
    124 H124       30.9441   -0.2371   -3.5608 H         1 UNK         0.0812 
    125 H125       31.1215    1.6763   -7.7554 H         1 UNK         0.3205 
    126 H126       33.2853    3.2680   -6.7473 H         1 UNK         0.0754 
    127 H127       33.6002    3.8636   -9.1492 H         1 UNK         0.0769 
    128 H128       31.9127    3.9785   -8.6765 H         1 UNK         0.0769 
    129 H129       32.4670    2.6042   -9.6264 H         1 UNK         0.0769 
    130 H130       33.2138    0.2767   -8.7359 H         1 UNK         0.2981 
    131 H131       34.7236   -1.1639   -9.4309 H         1 UNK         0.0541 
    132 H132       35.1534    1.6882  -10.3432 H         1 UNK         0.3459 
    133 H133       36.7791    1.6321  -10.9760 H         1 UNK         0.3459 
    134 H134       36.7156   -1.7292   -7.7762 H         1 UNK         0.0612 
    135 H135       35.9402   -0.6238   -6.6830 H         1 UNK         0.0612 
    136 H136       34.4368   -1.9428   -4.8062 H         1 UNK         0.0624 
    137 H137       33.5227   -0.9068   -5.8754 H         1 UNK         0.0624 
@<TRIPOS>BOND
     1    1    2 1    
     2    1   72 1    
     3    1   73 1    
     4    1   74 1    
     5    2    3 2    
     6    2    4 am   BACKBONE|DICT|INTERRES
     7    4    5 1    
     8    4   75 1    
     9    5    6 1    
    10    5   35 1    
    11    5   76 1    
    12    6    7 1    
    13    6   77 1    
    14    6   78 1    
    15    7    8 1    
    16    8    9 1    
    17    8   79 1    
    18    8   80 1    
    19    9   10 ar   
    20    9   14 ar   
    21   10   11 ar   
    22   10   81 1    
    23   11   12 ar   
    24   11   71 1    
    25   12   13 ar   
    26   12   82 1    
    27   13   14 ar   
    28   13   15 1    
    29   14   83 1    
    30   15   16 1    
    31   15   84 1    
    32   15   85 1    
    33   16   17 1    
    34   17   18 1    
    35   17   86 1    
    36   17   87 1    
    37   18   19 1    
    38   18   37 1    
    39   18   88 1    
    40   19   20 am   BACKBONE|DICT|INTERRES
    41   19   89 1    
    42   20   21 2    
    43   20   22 1    
    44   22   23 1    
    45   22   24 1    
    46   22   90 1    
    47   23   91 1    
    48   23   92 1    
    49   23   93 1    
    50   24   25 am   BACKBONE|DICT|INTERRES
    51   24   94 1    
    52   25   26 2    
    53   25   27 1    
    54   27   28 1    
    55   27   29 1    
    56   27   95 1    
    57   28   96 1    
    58   28   97 1    
    59   28   98 1    
    60   29   30 am   BACKBONE|DICT|INTERRES
    61   29   99 1    
    62   30   31 2    
    63   30   32 1    
    64   32   33 1    
    65   32   34 1    
    66   32  100 1    
    67   33  101 1    
    68   33  102 1    
    69   33  103 1    
    70   34   35 am   BACKBONE|DICT|INTERRES
    71   34  104 1    
    72   35   36 2    
    73   37   38 2    
    74   37   39 am   BACKBONE|DICT|INTERRES
    75   39   40 1    
    76   39  105 1    
    77   40   41 1    
    78   40   42 1    
    79   40  106 1    
    80   41  107 1    
    81   41  108 1    
    82   41  109 1    
    83   42   43 2    
    84   42   44 am   BACKBONE|DICT|INTERRES
    85   44   45 1    
    86   44  110 1    
    87   45   46 1    
    88   45   47 1    
    89   45  111 1    
    90   46  112 1    
    91   46  113 1    
    92   46  114 1    
    93   47   48 2    
    94   47   49 am   BACKBONE|DICT|INTERRES
    95   49   50 1    
    96   49  115 1    
    97   50   51 1    
    98   50   52 1    
    99   50  116 1    
   100   51  117 1    
   101   51  118 1    
   102   51  119 1    
   103   52   53 2    
   104   52   54 am   BACKBONE|DICT|INTERRES
   105   54   55 1    
   106   54  120 1    
   107   55   56 1    
   108   55   57 1    
   109   55  121 1    
   110   56  122 1    
   111   56  123 1    
   112   56  124 1    
   113   57   58 2    
   114   57   59 am   BACKBONE|DICT|INTERRES
   115   59   60 1    
   116   59  125 1    
   117   60   61 1    
   118   60   62 1    
   119   60  126 1    
   120   61  127 1    
   121   61  128 1    
   122   61  129 1    
   123   62   63 2    
   124   62   64 am   BACKBONE|DICT|INTERRES
   125   64   65 1    
   126   64  130 1    
   127   65   66 1    
   128   65   69 1    
   129   65  131 1    
   130   66   67 am   BACKBONE|DICT|INTERRES
   131   66   68 2    
   132   67  132 1    
   133   67  133 1    
   134   69   70 1    
   135   69  134 1    
   136   69  135 1    
   137   70   71 1    
   138   71  136 1    
   139   71  137 1    
@<TRIPOS>SUBSTRUCTURE
     1 UNK         1 GROUP             0       ****    0 ROOT    
