@<TRIPOS>MOLECULE
3R137
137   139    1
SMALL
USER_CHARGES


@<TRIPOS>ATOM
      1 CA         28.0428   -7.4623   -4.6461 C.3       0 UNK        -0.2020 
      2 C          27.6104   -6.7981   -3.3472 C.2       0 UNK         0.4855 
      3 O          26.7259   -7.3113   -2.6606 O.2       0 UNK        -0.5197 
      4 N          28.2357   -5.6659   -3.0050 N.am      1 UNK        -0.4892 
      5 CA         27.8984   -4.8230   -1.8533 C.3       1 UNK         0.0835 
      6 C6         29.1579   -4.0935   -1.3149 C.3       12 UNK        -0.0855 
      7 S7         29.9233   -2.9645   -2.5231 S.3       12 UNK        -0.2931 
      8 C8         31.3702   -2.3890   -1.5867 C.3       12 UNK         0.0378 
      9 C9         31.8442   -1.0695   -2.1643 C.ar      12 UNK        -0.0802 
     10 C10        32.8777   -1.0299   -3.1021 C.ar      12 UNK        -0.0944 
     11 C11        33.2249    0.1744   -3.7229 C.ar      12 UNK        -0.0787 
     12 C12        32.5536    1.3500   -3.3676 C.ar      12 UNK        -0.0862 
     13 C13        31.5394    1.3230   -2.4046 C.ar      12 UNK        -0.0733 
     14 C14        31.1968    0.1116   -1.8009 C.ar      12 UNK        -0.0832 
     15 C15        30.7969    2.5931   -2.0186 C.3       12 UNK         0.0240 
     16 S16        29.6094    3.1227   -3.2937 S.3       12 UNK        -0.2522 
     17 C17        28.4670    1.6999   -3.4412 C.3       12 UNK        -0.0967 
     18 CA         28.3107    1.2509   -4.9161 C.3       5 UNK         0.0660 
     19 N          27.7834   -0.1108   -5.0406 N.am      5 UNK        -0.4015 
     20 C          27.9794   -0.8900   -6.1166 C.2       4 UNK         0.4946 
     21 O          28.7797   -0.6220   -7.0143 O.2       4 UNK        -0.5353 
     22 CA         27.1365   -2.1730   -6.2582 C.3       4 UNK         0.0277 
     23 CB         27.9574   -3.4118   -5.8788 C.3       4 UNK        -0.1981 
     24 N          25.8941   -2.1523   -5.4852 N.am      4 UNK        -0.4209 
     25 C          24.8764   -1.3110   -5.7211 C.2       3 UNK         0.4942 
     26 O          24.8459   -0.5392   -6.6794 O.2       3 UNK        -0.5208 
     27 CA         23.7278   -1.2692   -4.6960 C.3       3 UNK         0.0250 
     28 CB         22.5211   -2.0675   -5.2128 C.3       3 UNK        -0.1990 
     29 N          24.0843   -1.7451   -3.3563 N.am      3 UNK        -0.4232 
     30 C          25.0713   -1.2751   -2.5784 C.2       2 UNK         0.4993 
     31 O          25.8168   -0.3475   -2.9027 O.2       2 UNK        -0.5286 
     32 CA         25.2934   -1.9976   -1.2339 C.3       2 UNK         0.0209 
     33 CB         24.0308   -2.7174   -0.7086 C.3       2 UNK        -0.1931 
     34 N          26.4246   -2.9394   -1.2504 N.am      2 UNK        -0.4546 
     35 C          26.7044   -3.8832   -2.1659 C.2       1 UNK         0.5154 
     36 O          26.0583   -4.0316   -3.2081 O.2       1 UNK        -0.5181 
     37 C          27.4194    2.2334   -5.7016 C.2       5 UNK         0.5014 
     38 O          27.9368    3.0321   -6.4829 O.2       5 UNK        -0.5248 
     39 N          26.0941    2.1428   -5.4952 N.am      6 UNK        -0.4434 
     40 CA         25.0720    3.0226   -6.0829 C.3       6 UNK         0.0363 
     41 CB         23.6901    2.6582   -5.5184 C.3       6 UNK        -0.1936 
     42 C          25.0352    3.0246   -7.6225 C.2       6 UNK         0.5081 
     43 O          24.6216    4.0220   -8.2136 O.2       6 UNK        -0.5248 
     44 N          25.5061    1.9336   -8.2415 N.am      7 UNK        -0.4718 
     45 CA         25.7638    1.8043   -9.6792 C.3       7 UNK         0.0273 
     46 CB         26.1883    0.3535   -9.9666 C.3       7 UNK        -0.1935 
     47 C          26.8202    2.7881  -10.2303 C.2       7 UNK         0.5018 
     48 O          26.8554    2.9994  -11.4429 O.2       7 UNK        -0.5186 
     49 N          27.6536    3.3526   -9.3418 N.am      8 UNK        -0.4240 
     50 CA         28.7626    4.2783   -9.5862 C.3       8 UNK         0.0235 
     51 CB         28.2059    5.6666   -9.9685 C.3       8 UNK        -0.2000 
     52 C          29.8136    3.7551  -10.5943 C.2       8 UNK         0.4941 
     53 O          30.0551    4.4177  -11.6036 O.2       8 UNK        -0.5273 
     54 N          30.4561    2.6002  -10.3704 N.am      9 UNK        -0.4262 
     55 CA         30.3117    1.6262   -9.2903 C.3       9 UNK         0.0264 
     56 CB         31.1384    2.0406   -8.0599 C.3       9 UNK        -0.1955 
     57 C          30.7830    0.2789   -9.8435 C.2       9 UNK         0.5031 
     58 O          31.6905    0.2493  -10.6801 O.2       9 UNK        -0.5390 
     59 N          30.1609   -0.8012   -9.3661 N.am      10 UNK        -0.4204 
     60 CA         30.5356   -2.1816   -9.6689 C.3       10 UNK         0.0237 
     61 CB         29.2647   -3.0387   -9.7894 C.3       10 UNK        -0.1985 
     62 C          31.4734   -2.7451   -8.5909 C.2       10 UNK         0.4970 
     63 O          32.3228   -3.5744   -8.9158 O.2       10 UNK        -0.4914 
     64 N          31.3052   -2.2848   -7.3415 N.am      11 UNK        -0.4285 
     65 CA         32.1282   -2.6107   -6.1624 C.3       11 UNK         0.1007 
     66 C          32.0784   -4.0950   -5.6819 C.2       11 UNK         0.5703 
     67 N          31.2383   -4.9580   -6.2407 N.am      11 UNK        -0.7361 
     68 O          32.7956   -4.4682   -4.7569 O.2       11 UNK        -0.4986 
     69 C69        33.5890   -2.0844   -6.2938 C.3       12 UNK        -0.0947 
     70 S70        33.6780   -0.2654   -6.4281 S.3       12 UNK        -0.2240 
     71 C71        34.3146    0.2045   -4.7853 C.3       12 UNK         0.0194 
     72 H72        28.8119   -6.8877   -5.1619 H         1 UNK         0.0906 
     73 H73        28.4384   -8.4577   -4.4461 H         1 UNK         0.0906 
     74 H74        27.1899   -7.5621   -5.3169 H         1 UNK         0.0906 
     75 H75        28.9446   -5.2817   -3.6132 H         1 UNK         0.3140 
     76 H76        27.5471   -5.4773   -1.0520 H         1 UNK         0.1085 
     77 H77        29.9054   -4.8345   -1.0257 H         1 UNK         0.0836 
     78 H78        28.9335   -3.5405   -0.4015 H         1 UNK         0.0836 
     79 H79        32.1580   -3.1428   -1.6300 H         1 UNK         0.0731 
     80 H80        31.1127   -2.2603   -0.5342 H         1 UNK         0.0731 
     81 H81        33.3809   -1.9462   -3.3759 H         1 UNK         0.1312 
     82 H82        32.8099    2.2848   -3.8475 H         1 UNK         0.1406 
     83 H83        30.3964    0.0777   -1.0740 H         1 UNK         0.1631 
     84 H84        31.5173    3.3956   -1.8542 H         1 UNK         0.0717 
     85 H85        30.2677    2.4621   -1.0734 H         1 UNK         0.0717 
     86 H86        28.8388    0.8679   -2.8455 H         1 UNK         0.0934 
     87 H87        27.5068    1.9636   -2.9932 H         1 UNK         0.0934 
     88 H88        29.3032    1.2636   -5.3732 H         1 UNK         0.0739 
     89 H89        27.1185   -0.4006   -4.3283 H         1 UNK         0.3093 
     90 H90        26.8625   -2.2589   -7.3118 H         1 UNK         0.0818 
     91 H91        28.8542   -3.4887   -6.4904 H         1 UNK         0.0819 
     92 H92        27.3860   -4.3290   -6.0220 H         1 UNK         0.0819 
     93 H93        28.2743   -3.3737   -4.8388 H         1 UNK         0.0819 
     94 H94        25.8450   -2.7702   -4.6779 H         1 UNK         0.3041 
     95 H95        23.4268   -0.2267   -4.5893 H         1 UNK         0.0784 
     96 H96        22.2123   -1.7145   -6.1980 H         1 UNK         0.0793 
     97 H97        22.7503   -3.1301   -5.3042 H         1 UNK         0.0793 
     98 H98        21.6614   -1.9635   -4.5504 H         1 UNK         0.0793 
     99 H99        23.5664   -2.5419   -3.0150 H         1 UNK         0.3024 
    100 H100       25.5467   -1.2136   -0.5180 H         1 UNK         0.1171 
    101 H101       24.1790   -3.0626    0.3148 H         1 UNK         0.0786 
    102 H102       23.1687   -2.0487   -0.6947 H         1 UNK         0.0786 
    103 H103       23.7699   -3.5892   -1.3099 H         1 UNK         0.0786 
    104 H104       27.0457   -2.8645   -0.4573 H         1 UNK         0.2977 
    105 H105       25.7605    1.4411   -4.8500 H         1 UNK         0.3127 
    106 H106       25.3114    4.0398   -5.7661 H         1 UNK         0.0770 
    107 H107       23.3514    1.6889   -5.8836 H         1 UNK         0.0814 
    108 H108       22.9438    3.3926   -5.8244 H         1 UNK         0.0814 
    109 H109       23.6912    2.6336   -4.4286 H         1 UNK         0.0814 
    110 H110       25.7079    1.1228   -7.6664 H         1 UNK         0.2983 
    111 H111       24.8281    2.0060  -10.2045 H         1 UNK         0.0947 
    112 H112       25.4137   -0.3527   -9.6662 H         1 UNK         0.0806 
    113 H113       27.1039    0.0882   -9.4367 H         1 UNK         0.0806 
    114 H114       26.3704    0.2005  -11.0312 H         1 UNK         0.0806 
    115 H115       27.5387    3.1001   -8.3630 H         1 UNK         0.3000 
    116 H116       29.2790    4.3948   -8.6335 H         1 UNK         0.0850 
    117 H117       29.0090    6.3982  -10.0649 H         1 UNK         0.0810 
    118 H118       27.5185    6.0392   -9.2088 H         1 UNK         0.0810 
    119 H119       27.6713    5.6407  -10.9187 H         1 UNK         0.0810 
    120 H120       31.1132    2.2800  -11.0719 H         1 UNK         0.3040 
    121 H121       29.2711    1.5075   -8.9979 H         1 UNK         0.0766 
    122 H122       30.7858    2.9751   -7.6261 H         1 UNK         0.0812 
    123 H123       32.1943    2.1603   -8.3056 H         1 UNK         0.0812 
    124 H124       31.0710    1.2844   -7.2765 H         1 UNK         0.0812 
    125 H125       29.4823   -0.6729   -8.6138 H         1 UNK         0.3205 
    126 H126       31.0631   -2.2234  -10.6244 H         1 UNK         0.0754 
    127 H127       28.6262   -2.6825  -10.5980 H         1 UNK         0.0769 
    128 H128       28.6759   -3.0270   -8.8728 H         1 UNK         0.0769 
    129 H129       29.5130   -4.0784  -10.0075 H         1 UNK         0.0769 
    130 H130       30.5591   -1.6209   -7.1719 H         1 UNK         0.2981 
    131 H131       31.6541   -2.0624   -5.3486 H         1 UNK         0.0541 
    132 H132       30.6812   -4.6884   -7.0333 H         1 UNK         0.3459 
    133 H133       31.2343   -5.9114   -5.9170 H         1 UNK         0.3459 
    134 H134       34.2044   -2.3999   -5.4511 H         1 UNK         0.0612 
    135 H135       34.0714   -2.5131   -7.1729 H         1 UNK         0.0612 
    136 H136       35.1403   -0.4497   -4.5020 H         1 UNK         0.0624 
    137 H137       34.7369    1.2080   -4.8545 H         1 UNK         0.0624 
@<TRIPOS>BOND
     1    1    2 1    
     2    1   72 1    
     3    1   73 1    
     4    1   74 1    
     5    2    3 2    
     6    2    4 am   BACKBONE|DICT|INTERRES
     7    4    5 1    
     8    4   75 1    
     9    5    6 1    
    10    5   35 1    
    11    5   76 1    
    12    6    7 1    
    13    6   77 1    
    14    6   78 1    
    15    7    8 1    
    16    8    9 1    
    17    8   79 1    
    18    8   80 1    
    19    9   10 ar   
    20    9   14 ar   
    21   10   11 ar   
    22   10   81 1    
    23   11   12 ar   
    24   11   71 1    
    25   12   13 ar   
    26   12   82 1    
    27   13   14 ar   
    28   13   15 1    
    29   14   83 1    
    30   15   16 1    
    31   15   84 1    
    32   15   85 1    
    33   16   17 1    
    34   17   18 1    
    35   17   86 1    
    36   17   87 1    
    37   18   19 1    
    38   18   37 1    
    39   18   88 1    
    40   19   20 am   BACKBONE|DICT|INTERRES
    41   19   89 1    
    42   20   21 2    
    43   20   22 1    
    44   22   23 1    
    45   22   24 1    
    46   22   90 1    
    47   23   91 1    
    48   23   92 1    
    49   23   93 1    
    50   24   25 am   BACKBONE|DICT|INTERRES
    51   24   94 1    
    52   25   26 2    
    53   25   27 1    
    54   27   28 1    
    55   27   29 1    
    56   27   95 1    
    57   28   96 1    
    58   28   97 1    
    59   28   98 1    
    60   29   30 am   BACKBONE|DICT|INTERRES
    61   29   99 1    
    62   30   31 2    
    63   30   32 1    
    64   32   33 1    
    65   32   34 1    
    66   32  100 1    
    67   33  101 1    
    68   33  102 1    
    69   33  103 1    
    70   34   35 am   BACKBONE|DICT|INTERRES
    71   34  104 1    
    72   35   36 2    
    73   37   38 2    
    74   37   39 am   BACKBONE|DICT|INTERRES
    75   39   40 1    
    76   39  105 1    
    77   40   41 1    
    78   40   42 1    
    79   40  106 1    
    80   41  107 1    
    81   41  108 1    
    82   41  109 1    
    83   42   43 2    
    84   42   44 am   BACKBONE|DICT|INTERRES
    85   44   45 1    
    86   44  110 1    
    87   45   46 1    
    88   45   47 1    
    89   45  111 1    
    90   46  112 1    
    91   46  113 1    
    92   46  114 1    
    93   47   48 2    
    94   47   49 am   BACKBONE|DICT|INTERRES
    95   49   50 1    
    96   49  115 1    
    97   50   51 1    
    98   50   52 1    
    99   50  116 1    
   100   51  117 1    
   101   51  118 1    
   102   51  119 1    
   103   52   53 2    
   104   52   54 am   BACKBONE|DICT|INTERRES
   105   54   55 1    
   106   54  120 1    
   107   55   56 1    
   108   55   57 1    
   109   55  121 1    
   110   56  122 1    
   111   56  123 1    
   112   56  124 1    
   113   57   58 2    
   114   57   59 am   BACKBONE|DICT|INTERRES
   115   59   60 1    
   116   59  125 1    
   117   60   61 1    
   118   60   62 1    
   119   60  126 1    
   120   61  127 1    
   121   61  128 1    
   122   61  129 1    
   123   62   63 2    
   124   62   64 am   BACKBONE|DICT|INTERRES
   125   64   65 1    
   126   64  130 1    
   127   65   66 1    
   128   65   69 1    
   129   65  131 1    
   130   66   67 am   BACKBONE|DICT|INTERRES
   131   66   68 2    
   132   67  132 1    
   133   67  133 1    
   134   69   70 1    
   135   69  134 1    
   136   69  135 1    
   137   70   71 1    
   138   71  136 1    
   139   71  137 1    
@<TRIPOS>SUBSTRUCTURE
     1 UNK         1 GROUP             0       ****    0 ROOT    
