@<TRIPOS>MOLECULE
3R137
137   139    1
SMALL
USER_CHARGES


@<TRIPOS>ATOM
      1 CA         26.4520   -4.2689    2.5736 C.3       0 UNK        -0.2020 
      2 C          27.0605   -3.8490    1.2441 C.2       0 UNK         0.4855 
      3 O          27.9723   -3.0229    1.2228 O.2       0 UNK        -0.5197 
      4 N          26.5600   -4.4080    0.1334 N.am      1 UNK        -0.4892 
      5 CA         27.0206   -4.1177   -1.2335 C.3       1 UNK         0.0835 
      6 C6         26.8588   -5.3639   -2.1446 C.3       12 UNK        -0.0855 
      7 S7         28.0157   -5.5463   -3.5545 S.3       12 UNK        -0.2931 
      8 C8         29.6936   -5.1807   -2.9219 C.3       12 UNK         0.0378 
      9 C9         30.1972   -3.8335   -3.4314 C.ar      12 UNK        -0.0802 
     10 C10        30.6489   -3.7060   -4.7496 C.ar      12 UNK        -0.0944 
     11 C11        31.0398   -2.4603   -5.2547 C.ar      12 UNK        -0.0787 
     12 C12        30.9848   -1.3351   -4.4275 C.ar      12 UNK        -0.0862 
     13 C13        30.5652   -1.4539   -3.1003 C.ar      12 UNK        -0.0733 
     14 C14        30.1959   -2.7079   -2.6040 C.ar      12 UNK        -0.0832 
     15 C15        30.4999   -0.2356   -2.1921 C.3       12 UNK         0.0240 
     16 S16        28.8062    0.0386   -1.5832 S.3       12 UNK        -0.2522 
     17 C17        28.1645    1.3658   -2.6515 C.3       12 UNK        -0.0967 
     18 CA         28.2215    1.1412   -4.1875 C.3       5 UNK         0.0660 
     19 N          27.6332   -0.1229   -4.6520 N.am      5 UNK        -0.4015 
     20 C          27.6748   -0.5497   -5.9274 C.2       4 UNK         0.4946 
     21 O          28.3209    0.0028   -6.8173 O.2       4 UNK        -0.5353 
     22 CA         26.8138   -1.7596   -6.3128 C.3       4 UNK         0.0277 
     23 CB         27.6039   -3.0622   -6.1700 C.3       4 UNK        -0.1981 
     24 N          25.5881   -1.8335   -5.5229 N.am      4 UNK        -0.4209 
     25 C          24.5163   -1.0571   -5.7292 C.2       3 UNK         0.4942 
     26 O          24.4382   -0.2226   -6.6313 O.2       3 UNK        -0.5208 
     27 CA         23.3528   -1.2096   -4.7346 C.3       3 UNK         0.0250 
     28 CB         22.4452   -2.3828   -5.1367 C.3       3 UNK        -0.1990 
     29 N          23.8056   -1.3878   -3.3518 N.am      3 UNK        -0.4232 
     30 C          24.4828   -0.4606   -2.6615 C.2       2 UNK         0.4993 
     31 O          24.7694    0.6502   -3.1089 O.2       2 UNK        -0.5286 
     32 CA         24.9529   -0.8413   -1.2491 C.3       2 UNK         0.0209 
     33 CB         23.8411   -0.5698   -0.2231 C.3       2 UNK        -0.1931 
     34 N          25.4475   -2.2150   -1.0786 N.am      2 UNK        -0.4546 
     35 C          26.3894   -2.8275   -1.8159 C.2       1 UNK         0.5154 
     36 O          26.7840   -2.3919   -2.8965 O.2       1 UNK        -0.5181 
     37 C          27.5612    2.3461   -4.8863 C.2       5 UNK         0.5014 
     38 O          28.2708    3.2094   -5.4025 O.2       5 UNK        -0.5248 
     39 N          26.2187    2.3732   -4.8921 N.am      6 UNK        -0.4434 
     40 CA         25.3996    3.4200   -5.5082 C.3       6 UNK         0.0363 
     41 CB         23.9222    3.1965   -5.1478 C.3       6 UNK        -0.1936 
     42 C          25.5799    3.5084   -7.0318 C.2       6 UNK         0.5081 
     43 O          25.6832    4.6133   -7.5655 O.2       6 UNK        -0.5248 
     44 N          25.6370    2.3490   -7.7009 N.am      7 UNK        -0.4718 
     45 CA         25.9143    2.2431   -9.1359 C.3       7 UNK         0.0273 
     46 CB         25.4945    0.8463   -9.6210 C.3       7 UNK        -0.1935 
     47 C          27.3882    2.5065   -9.4977 C.2       7 UNK         0.5018 
     48 O          27.6668    2.8313  -10.6525 O.2       7 UNK        -0.5186 
     49 N          28.2943    2.3220   -8.5242 N.am      8 UNK        -0.4240 
     50 CA         29.7577    2.2896   -8.6443 C.3       8 UNK         0.0235 
     51 CB         30.3135    3.6822   -9.0061 C.3       8 UNK        -0.2000 
     52 C          30.2239    1.1776   -9.6050 C.2       8 UNK         0.4941 
     53 O          31.1415    1.3950  -10.3992 O.2       8 UNK        -0.5273 
     54 N          29.5524    0.0180   -9.5296 N.am      9 UNK        -0.4262 
     55 CA         29.6018   -1.1009  -10.4779 C.3       9 UNK         0.0264 
     56 CB         28.5140   -2.1195  -10.0924 C.3       9 UNK        -0.1955 
     57 C          30.9917   -1.7546  -10.5800 C.2       9 UNK         0.5031 
     58 O          31.2533   -2.7463   -9.8993 O.2       9 UNK        -0.5390 
     59 N          31.8578   -1.1547  -11.4093 N.am      10 UNK        -0.4204 
     60 CA         33.2967   -1.4176  -11.5473 C.3       10 UNK         0.0237 
     61 CB         33.5665   -2.8528  -12.0498 C.3       10 UNK        -0.1985 
     62 C          34.0966   -1.0624  -10.2746 C.2       10 UNK         0.4970 
     63 O          35.1826   -1.6079  -10.0698 O.2       10 UNK        -0.4914 
     64 N          33.5549   -0.1464   -9.4603 N.am      11 UNK        -0.4285 
     65 CA         34.1298    0.3282   -8.1907 C.3       11 UNK         0.1007 
     66 C          34.3367    1.8696   -8.1580 C.2       11 UNK         0.5703 
     67 N          34.0133    2.6142   -9.2095 N.am      11 UNK        -0.7361 
     68 O          34.8248    2.4032   -7.1647 O.2       11 UNK        -0.4986 
     69 C69        33.3153   -0.1660   -6.9613 C.3       12 UNK        -0.0947 
     70 S70        33.2704   -1.9882   -6.8334 S.3       12 UNK        -0.2240 
     71 C71        31.4861   -2.3284   -6.7034 C.3       12 UNK         0.0194 
     72 H72        26.0338   -3.4024    3.0852 H         1 UNK         0.0906 
     73 H73        25.6574   -5.0039    2.4464 H         1 UNK         0.0906 
     74 H74        27.2175   -4.7056    3.2145 H         1 UNK         0.0906 
     75 H75        25.8115   -5.0835    0.2124 H         1 UNK         0.3140 
     76 H76        28.0803   -3.8998   -1.1549 H         1 UNK         0.1085 
     77 H77        25.8387   -5.4256   -2.5283 H         1 UNK         0.0836 
     78 H78        26.9926   -6.2681   -1.5481 H         1 UNK         0.0836 
     79 H79        30.3680   -5.9622   -3.2749 H         1 UNK         0.0731 
     80 H80        29.7258   -5.2388   -1.8337 H         1 UNK         0.0731 
     81 H81        30.6609   -4.5752   -5.3929 H         1 UNK         0.1312 
     82 H82        31.2695   -0.3694   -4.8199 H         1 UNK         0.1406 
     83 H83        29.8805   -2.7862   -1.5741 H         1 UNK         0.1631 
     84 H84        30.8716    0.6603   -2.6912 H         1 UNK         0.0717 
     85 H85        31.1550   -0.4032   -1.3362 H         1 UNK         0.0717 
     86 H86        27.1382    1.5484   -2.3294 H         1 UNK         0.0934 
     87 H87        28.7127    2.2745   -2.3939 H         1 UNK         0.0934 
     88 H88        29.2697    1.1311   -4.4902 H         1 UNK         0.0739 
     89 H89        27.1645   -0.6985   -3.9596 H         1 UNK         0.3093 
     90 H90        26.5396   -1.6511   -7.3641 H         1 UNK         0.0818 
     91 H91        27.0106   -3.9296   -6.4584 H         1 UNK         0.0819 
     92 H92        28.4971   -3.0516   -6.7939 H         1 UNK         0.0819 
     93 H93        27.9308   -3.2018   -5.1419 H         1 UNK         0.0819 
     94 H94        25.6239   -2.4144   -4.6936 H         1 UNK         0.3041 
     95 H95        22.7629   -0.2913   -4.7768 H         1 UNK         0.0784 
     96 H96        22.0829   -2.2616   -6.1586 H         1 UNK         0.0793 
     97 H97        22.9704   -3.3376   -5.0881 H         1 UNK         0.0793 
     98 H98        21.5698   -2.4469   -4.4901 H         1 UNK         0.0793 
     99 H99        23.6206   -2.2771   -2.9110 H         1 UNK         0.3024 
    100 H100       25.7904   -0.1814   -1.0148 H         1 UNK         0.1171 
    101 H101       24.2047   -0.6883    0.7978 H         1 UNK         0.0786 
    102 H102       23.4661    0.4510   -0.3131 H         1 UNK         0.0786 
    103 H103       22.9931   -1.2422   -0.3587 H         1 UNK         0.0786 
    104 H104       25.1893   -2.6712   -0.2161 H         1 UNK         0.2977 
    105 H105       25.7145    1.6447   -4.3886 H         1 UNK         0.3127 
    106 H106       25.7131    4.3756   -5.0829 H         1 UNK         0.0770 
    107 H107       23.5579    2.2361   -5.5149 H         1 UNK         0.0814 
    108 H108       23.2916    3.9737   -5.5815 H         1 UNK         0.0814 
    109 H109       23.7699    3.2194   -4.0686 H         1 UNK         0.0814 
    110 H110       25.4641    1.4825   -7.1999 H         1 UNK         0.2983 
    111 H111       25.3101    2.9856   -9.6621 H         1 UNK         0.0947 
    112 H112       26.0501    0.0609   -9.1082 H         1 UNK         0.0806 
    113 H113       25.6741    0.7303  -10.6908 H         1 UNK         0.0806 
    114 H114       24.4326    0.6694   -9.4488 H         1 UNK         0.0806 
    115 H115       27.9443    2.0178   -7.6235 H         1 UNK         0.3000 
    116 H116       30.1400    2.0245   -7.6572 H         1 UNK         0.0850 
    117 H117       29.9538    4.4426   -8.3129 H         1 UNK         0.0810 
    118 H118       30.0288    3.9837  -10.0145 H         1 UNK         0.0810 
    119 H119       31.4023    3.6915   -8.9597 H         1 UNK         0.0810 
    120 H120       28.9001   -0.0745   -8.7565 H         1 UNK         0.3040 
    121 H121       29.3467   -0.7071  -11.4639 H         1 UNK         0.0766 
    122 H122       28.5175   -2.9712  -10.7739 H         1 UNK         0.0812 
    123 H123       27.5192   -1.6767  -10.1348 H         1 UNK         0.0812 
    124 H124       28.6669   -2.5083   -9.0858 H         1 UNK         0.0812 
    125 H125       31.5373   -0.3003  -11.8497 H         1 UNK         0.3205 
    126 H126       33.6510   -0.7320  -12.3183 H         1 UNK         0.0754 
    127 H127       34.6165   -2.9830  -12.3143 H         1 UNK         0.0769 
    128 H128       32.9792   -3.0791  -12.9396 H         1 UNK         0.0769 
    129 H129       33.3303   -3.6000  -11.2916 H         1 UNK         0.0769 
    130 H130       32.6762    0.2806   -9.7324 H         1 UNK         0.2981 
    131 H131       35.1389   -0.0745   -8.0891 H         1 UNK         0.0541 
    132 H132       34.1721    3.6083   -9.1703 H         1 UNK         0.3459 
    133 H133       33.6044    2.2037  -10.0339 H         1 UNK         0.3459 
    134 H134       33.7530    0.2063   -6.0334 H         1 UNK         0.0612 
    135 H135       32.3013    0.2345   -7.0001 H         1 UNK         0.0612 
    136 H136       31.2802   -3.2539   -7.2424 H         1 UNK         0.0624 
    137 H137       30.9038   -1.5556   -7.2070 H         1 UNK         0.0624 
@<TRIPOS>BOND
     1    1    2 1    
     2    1   72 1    
     3    1   73 1    
     4    1   74 1    
     5    2    3 2    
     6    2    4 am   BACKBONE|DICT|INTERRES
     7    4    5 1    
     8    4   75 1    
     9    5    6 1    
    10    5   35 1    
    11    5   76 1    
    12    6    7 1    
    13    6   77 1    
    14    6   78 1    
    15    7    8 1    
    16    8    9 1    
    17    8   79 1    
    18    8   80 1    
    19    9   10 ar   
    20    9   14 ar   
    21   10   11 ar   
    22   10   81 1    
    23   11   12 ar   
    24   11   71 1    
    25   12   13 ar   
    26   12   82 1    
    27   13   14 ar   
    28   13   15 1    
    29   14   83 1    
    30   15   16 1    
    31   15   84 1    
    32   15   85 1    
    33   16   17 1    
    34   17   18 1    
    35   17   86 1    
    36   17   87 1    
    37   18   19 1    
    38   18   37 1    
    39   18   88 1    
    40   19   20 am   BACKBONE|DICT|INTERRES
    41   19   89 1    
    42   20   21 2    
    43   20   22 1    
    44   22   23 1    
    45   22   24 1    
    46   22   90 1    
    47   23   91 1    
    48   23   92 1    
    49   23   93 1    
    50   24   25 am   BACKBONE|DICT|INTERRES
    51   24   94 1    
    52   25   26 2    
    53   25   27 1    
    54   27   28 1    
    55   27   29 1    
    56   27   95 1    
    57   28   96 1    
    58   28   97 1    
    59   28   98 1    
    60   29   30 am   BACKBONE|DICT|INTERRES
    61   29   99 1    
    62   30   31 2    
    63   30   32 1    
    64   32   33 1    
    65   32   34 1    
    66   32  100 1    
    67   33  101 1    
    68   33  102 1    
    69   33  103 1    
    70   34   35 am   BACKBONE|DICT|INTERRES
    71   34  104 1    
    72   35   36 2    
    73   37   38 2    
    74   37   39 am   BACKBONE|DICT|INTERRES
    75   39   40 1    
    76   39  105 1    
    77   40   41 1    
    78   40   42 1    
    79   40  106 1    
    80   41  107 1    
    81   41  108 1    
    82   41  109 1    
    83   42   43 2    
    84   42   44 am   BACKBONE|DICT|INTERRES
    85   44   45 1    
    86   44  110 1    
    87   45   46 1    
    88   45   47 1    
    89   45  111 1    
    90   46  112 1    
    91   46  113 1    
    92   46  114 1    
    93   47   48 2    
    94   47   49 am   BACKBONE|DICT|INTERRES
    95   49   50 1    
    96   49  115 1    
    97   50   51 1    
    98   50   52 1    
    99   50  116 1    
   100   51  117 1    
   101   51  118 1    
   102   51  119 1    
   103   52   53 2    
   104   52   54 am   BACKBONE|DICT|INTERRES
   105   54   55 1    
   106   54  120 1    
   107   55   56 1    
   108   55   57 1    
   109   55  121 1    
   110   56  122 1    
   111   56  123 1    
   112   56  124 1    
   113   57   58 2    
   114   57   59 am   BACKBONE|DICT|INTERRES
   115   59   60 1    
   116   59  125 1    
   117   60   61 1    
   118   60   62 1    
   119   60  126 1    
   120   61  127 1    
   121   61  128 1    
   122   61  129 1    
   123   62   63 2    
   124   62   64 am   BACKBONE|DICT|INTERRES
   125   64   65 1    
   126   64  130 1    
   127   65   66 1    
   128   65   69 1    
   129   65  131 1    
   130   66   67 am   BACKBONE|DICT|INTERRES
   131   66   68 2    
   132   67  132 1    
   133   67  133 1    
   134   69   70 1    
   135   69  134 1    
   136   69  135 1    
   137   70   71 1    
   138   71  136 1    
   139   71  137 1    
@<TRIPOS>SUBSTRUCTURE
     1 UNK         1 GROUP             0       ****    0 ROOT    
