@<TRIPOS>MOLECULE
3R137
137   139    1
SMALL
USER_CHARGES


@<TRIPOS>ATOM
      1 CA         27.1431   -6.7820   -3.3802 C.3       0 UNK        -0.2020 
      2 C          26.8912   -6.1668   -2.0124 C.2       0 UNK         0.4855 
      3 O          26.2405   -6.7899   -1.1736 O.2       0 UNK        -0.5197 
      4 N          27.3918   -4.9455   -1.7872 N.am      1 UNK        -0.4892 
      5 CA         27.2706   -4.2033   -0.5212 C.3       1 UNK         0.0835 
      6 C6         28.6254   -3.6073   -0.0536 C.3       12 UNK        -0.0855 
      7 S7         29.8804   -4.9115    0.2115 S.3       12 UNK        -0.2931 
      8 C8         31.4379   -4.0714   -0.2490 C.3       12 UNK         0.0378 
      9 C9         31.5006   -3.5405   -1.6820 C.ar      12 UNK        -0.0802 
     10 C10        32.3143   -2.4341   -1.9542 C.ar      12 UNK        -0.0944 
     11 C11        32.3817   -1.9003   -3.2437 C.ar      12 UNK        -0.0787 
     12 C12        31.6373   -2.4852   -4.2667 C.ar      12 UNK        -0.0862 
     13 C13        30.7965   -3.5696   -4.0101 C.ar      12 UNK        -0.0733 
     14 C14        30.7605   -4.1165   -2.7247 C.ar      12 UNK        -0.0832 
     15 C15        29.8947   -4.1129   -5.1110 C.3       12 UNK         0.0240 
     16 S16        28.1811   -3.4968   -4.9476 S.3       12 UNK        -0.2522 
     17 C17        28.3856   -1.6905   -5.1277 C.3       12 UNK        -0.0967 
     18 CA         27.6529   -1.1075   -6.3581 C.3       5 UNK         0.0660 
     19 N          26.1942   -1.1786   -6.2225 N.am      5 UNK        -0.4015 
     20 C          25.3273   -0.8925   -7.2077 C.2       4 UNK         0.4946 
     21 O          25.6693   -0.5864   -8.3490 O.2       4 UNK        -0.5353 
     22 CA         23.8266   -0.8888   -6.8596 C.3       4 UNK         0.0277 
     23 CB         23.2325   -2.2947   -7.0381 C.3       4 UNK        -0.1981 
     24 N          23.5422   -0.4082   -5.5062 N.am      4 UNK        -0.4209 
     25 C          23.9148    0.7803   -5.0088 C.2       3 UNK         0.4942 
     26 O          24.4372    1.6656   -5.6852 O.2       3 UNK        -0.5208 
     27 CA         23.7382    1.0034   -3.4941 C.3       3 UNK         0.0250 
     28 CB         22.5327    1.9185   -3.2272 C.3       3 UNK        -0.1990 
     29 N          23.6008   -0.2255   -2.6982 N.am      3 UNK        -0.4232 
     30 C          24.4867   -1.2318   -2.6468 C.2       2 UNK         0.4993 
     31 O          25.5341   -1.2571   -3.2993 O.2       2 UNK        -0.5286 
     32 CA         24.0754   -2.4429   -1.7953 C.3       2 UNK         0.0209 
     33 CB         22.9810   -3.2529   -2.5132 C.3       2 UNK        -0.1931 
     34 N          25.2058   -3.3323   -1.5344 N.am      2 UNK        -0.4546 
     35 C          26.1509   -3.1406   -0.6050 C.2       1 UNK         0.5154 
     36 O          26.1452   -2.1864    0.1755 O.2       1 UNK        -0.5181 
     37 C          28.1346    0.3352   -6.6144 C.2       5 UNK         0.5014 
     38 O          29.0300    0.5379   -7.4372 O.2       5 UNK        -0.5248 
     39 N          27.5353    1.3080   -5.9127 N.am      6 UNK        -0.4434 
     40 CA         27.8265    2.7332   -6.0694 C.3       6 UNK         0.0363 
     41 CB         27.2744    3.5186   -4.8689 C.3       6 UNK        -0.1936 
     42 C          27.2754    3.2844   -7.3923 C.2       6 UNK         0.5081 
     43 O          27.9738    4.0432   -8.0626 O.2       6 UNK        -0.5248 
     44 N          26.0587    2.8613   -7.7658 N.am      7 UNK        -0.4718 
     45 CA         25.4063    3.2029   -9.0338 C.3       7 UNK         0.0273 
     46 CB         23.9590    2.6874   -9.0243 C.3       7 UNK        -0.1935 
     47 C          26.1663    2.6718  -10.2618 C.2       7 UNK         0.5018 
     48 O          26.2945    3.3933  -11.2515 O.2       7 UNK        -0.5186 
     49 N          26.6835    1.4386  -10.1649 N.am      8 UNK        -0.4240 
     50 CA         27.5447    0.8161  -11.1742 C.3       8 UNK         0.0235 
     51 CB         27.5816   -0.7023  -10.9318 C.3       8 UNK        -0.2000 
     52 C          28.9793    1.3765  -11.1943 C.2       8 UNK         0.4941 
     53 O          29.6871    1.1441  -12.1751 O.2       8 UNK        -0.5273 
     54 N          29.3874    2.0668  -10.1168 N.am      9 UNK        -0.4262 
     55 CA         30.7406    2.5552   -9.8239 C.3       9 UNK         0.0264 
     56 CB         31.1526    3.6743  -10.8033 C.3       9 UNK        -0.1955 
     57 C          31.7546    1.3971   -9.7555 C.2       9 UNK         0.5031 
     58 O          32.7968    1.4375  -10.4127 O.2       9 UNK        -0.5390 
     59 N          31.3997    0.3620   -8.9812 N.am      10 UNK        -0.4204 
     60 CA         32.1325   -0.9025   -8.8764 C.3       10 UNK         0.0237 
     61 CB         31.2322   -1.9456   -8.1966 C.3       10 UNK        -0.1985 
     62 C          33.5046   -0.8001   -8.1821 C.2       10 UNK         0.4970 
     63 O          34.3523   -1.6592   -8.4292 O.2       10 UNK        -0.4914 
     64 N          33.7101    0.2368   -7.3606 N.am      11 UNK        -0.4285 
     65 CA         35.0138    0.6193   -6.7979 C.3       11 UNK         0.1007 
     66 C          35.4093    2.0180   -7.3338 C.2       11 UNK         0.5703 
     67 N          36.6832    2.2357   -7.6304 N.am      11 UNK        -0.7361 
     68 O          34.5777    2.9179   -7.4465 O.2       11 UNK        -0.4986 
     69 C69        35.0246    0.6140   -5.2460 C.3       12 UNK        -0.0947 
     70 S70        34.6673   -1.0300   -4.5402 S.3       12 UNK        -0.2240 
     71 C71        33.1976   -0.6530   -3.5390 C.3       12 UNK         0.0194 
     72 H72        28.0078   -6.3366   -3.8695 H         1 UNK         0.0906 
     73 H73        26.2739   -6.6432   -4.0225 H         1 UNK         0.0906 
     74 H74        27.3301   -7.8513   -3.2849 H         1 UNK         0.0906 
     75 H75        27.8646   -4.4535   -2.5344 H         1 UNK         0.3140 
     76 H76        26.9455   -4.8861    0.2670 H         1 UNK         0.1085 
     77 H77        28.5091   -3.0714    0.8902 H         1 UNK         0.0836 
     78 H78        28.9855   -2.8739   -0.7767 H         1 UNK         0.0836 
     79 H79        31.5987   -3.2545    0.4564 H         1 UNK         0.0731 
     80 H80        32.2630   -4.7699   -0.1047 H         1 UNK         0.0731 
     81 H81        32.8835   -1.9757   -1.1567 H         1 UNK         0.1312 
     82 H82        31.6918   -2.0623   -5.2579 H         1 UNK         0.1406 
     83 H83        30.1285   -4.9715   -2.5332 H         1 UNK         0.1631 
     84 H84        29.8881   -5.2030   -5.0738 H         1 UNK         0.0717 
     85 H85        30.2803   -3.8463   -6.0956 H         1 UNK         0.0717 
     86 H86        28.0403   -1.2149   -4.2079 H         1 UNK         0.0934 
     87 H87        29.4447   -1.4543   -5.1929 H         1 UNK         0.0934 
     88 H88        27.9327   -1.6959   -7.2349 H         1 UNK         0.0739 
     89 H89        25.8442   -1.3899   -5.2925 H         1 UNK         0.3093 
     90 H90        23.3268   -0.2145   -7.5569 H         1 UNK         0.0818 
     91 H91        22.1533   -2.2933   -6.8833 H         1 UNK         0.0819 
     92 H92        23.4121   -2.6675   -8.0477 H         1 UNK         0.0819 
     93 H93        23.6720   -3.0117   -6.3433 H         1 UNK         0.0819 
     94 H94        23.1115   -1.0659   -4.8743 H         1 UNK         0.3041 
     95 H95        24.6381    1.5140   -3.1451 H         1 UNK         0.0784 
     96 H96        22.6209    2.8530   -3.7837 H         1 UNK         0.0793 
     97 H97        21.5948    1.4489   -3.5264 H         1 UNK         0.0793 
     98 H98        22.4575    2.1803   -2.1716 H         1 UNK         0.0793 
     99 H99        22.7580   -0.3006   -2.1460 H         1 UNK         0.3024 
    100 H100       23.6860   -2.0790   -0.8414 H         1 UNK         0.1171 
    101 H101       22.0861   -2.6527   -2.6823 H         1 UNK         0.0786 
    102 H102       22.6765   -4.1165   -1.9213 H         1 UNK         0.0786 
    103 H103       23.3186   -3.6173   -3.4847 H         1 UNK         0.0786 
    104 H104       25.3167   -4.1211   -2.1538 H         1 UNK         0.2977 
    105 H105       26.7745    1.0649   -5.2944 H         1 UNK         0.3127 
    106 H106       28.9117    2.8586   -6.0831 H         1 UNK         0.0770 
    107 H107       26.1889    3.4483   -4.7970 H         1 UNK         0.0814 
    108 H108       27.5249    4.5771   -4.9514 H         1 UNK         0.0814 
    109 H109       27.6973    3.1589   -3.9308 H         1 UNK         0.0814 
    110 H110       25.5291    2.2832   -7.1170 H         1 UNK         0.2983 
    111 H111       25.3809    4.2923   -9.1072 H         1 UNK         0.0947 
    112 H112       23.4303    2.9950   -9.9275 H         1 UNK         0.0806 
    113 H113       23.4025    3.0782   -8.1720 H         1 UNK         0.0806 
    114 H114       23.9203    1.5992   -8.9795 H         1 UNK         0.0806 
    115 H115       26.4584    0.8735   -9.3493 H         1 UNK         0.3000 
    116 H116       27.1081    0.9965  -12.1588 H         1 UNK         0.0850 
    117 H117       28.1878   -1.2067  -11.6855 H         1 UNK         0.0810 
    118 H118       26.5823   -1.1357  -10.9770 H         1 UNK         0.0810 
    119 H119       28.0066   -0.9423   -9.9560 H         1 UNK         0.0810 
    120 H120       28.7173    2.1945   -9.3695 H         1 UNK         0.3040 
    121 H121       30.7000    2.9902   -8.8239 H         1 UNK         0.0766 
    122 H122       31.2519    3.3063  -11.8248 H         1 UNK         0.0812 
    123 H123       30.4227    4.4838  -10.8071 H         1 UNK         0.0812 
    124 H124       32.1137    4.1044  -10.5188 H         1 UNK         0.0812 
    125 H125       30.5205    0.4242   -8.4663 H         1 UNK         0.3205 
    126 H126       32.3288   -1.2492   -9.8933 H         1 UNK         0.0754 
    127 H127       31.7695   -2.8769   -8.0114 H         1 UNK         0.0769 
    128 H128       30.3716   -2.1867   -8.8210 H         1 UNK         0.0769 
    129 H129       30.8526   -1.5821   -7.2439 H         1 UNK         0.0769 
    130 H130       32.9793    0.9258   -7.2605 H         1 UNK         0.2981 
    131 H131       35.7790   -0.0837   -7.1327 H         1 UNK         0.0541 
    132 H132       37.3755    1.5099   -7.5276 H         1 UNK         0.3459 
    133 H133       36.9581    3.1455   -7.9665 H         1 UNK         0.3459 
    134 H134       34.3203    1.3511   -4.8562 H         1 UNK         0.0612 
    135 H135       36.0067    0.9150   -4.8764 H         1 UNK         0.0612 
    136 H136       33.5090   -0.1595   -2.6172 H         1 UNK         0.0624 
    137 H137       32.5613    0.0556   -4.0717 H         1 UNK         0.0624 
@<TRIPOS>BOND
     1    1    2 1    
     2    1   72 1    
     3    1   73 1    
     4    1   74 1    
     5    2    3 2    
     6    2    4 am   BACKBONE|DICT|INTERRES
     7    4    5 1    
     8    4   75 1    
     9    5    6 1    
    10    5   35 1    
    11    5   76 1    
    12    6    7 1    
    13    6   77 1    
    14    6   78 1    
    15    7    8 1    
    16    8    9 1    
    17    8   79 1    
    18    8   80 1    
    19    9   10 ar   
    20    9   14 ar   
    21   10   11 ar   
    22   10   81 1    
    23   11   12 ar   
    24   11   71 1    
    25   12   13 ar   
    26   12   82 1    
    27   13   14 ar   
    28   13   15 1    
    29   14   83 1    
    30   15   16 1    
    31   15   84 1    
    32   15   85 1    
    33   16   17 1    
    34   17   18 1    
    35   17   86 1    
    36   17   87 1    
    37   18   19 1    
    38   18   37 1    
    39   18   88 1    
    40   19   20 am   BACKBONE|DICT|INTERRES
    41   19   89 1    
    42   20   21 2    
    43   20   22 1    
    44   22   23 1    
    45   22   24 1    
    46   22   90 1    
    47   23   91 1    
    48   23   92 1    
    49   23   93 1    
    50   24   25 am   BACKBONE|DICT|INTERRES
    51   24   94 1    
    52   25   26 2    
    53   25   27 1    
    54   27   28 1    
    55   27   29 1    
    56   27   95 1    
    57   28   96 1    
    58   28   97 1    
    59   28   98 1    
    60   29   30 am   BACKBONE|DICT|INTERRES
    61   29   99 1    
    62   30   31 2    
    63   30   32 1    
    64   32   33 1    
    65   32   34 1    
    66   32  100 1    
    67   33  101 1    
    68   33  102 1    
    69   33  103 1    
    70   34   35 am   BACKBONE|DICT|INTERRES
    71   34  104 1    
    72   35   36 2    
    73   37   38 2    
    74   37   39 am   BACKBONE|DICT|INTERRES
    75   39   40 1    
    76   39  105 1    
    77   40   41 1    
    78   40   42 1    
    79   40  106 1    
    80   41  107 1    
    81   41  108 1    
    82   41  109 1    
    83   42   43 2    
    84   42   44 am   BACKBONE|DICT|INTERRES
    85   44   45 1    
    86   44  110 1    
    87   45   46 1    
    88   45   47 1    
    89   45  111 1    
    90   46  112 1    
    91   46  113 1    
    92   46  114 1    
    93   47   48 2    
    94   47   49 am   BACKBONE|DICT|INTERRES
    95   49   50 1    
    96   49  115 1    
    97   50   51 1    
    98   50   52 1    
    99   50  116 1    
   100   51  117 1    
   101   51  118 1    
   102   51  119 1    
   103   52   53 2    
   104   52   54 am   BACKBONE|DICT|INTERRES
   105   54   55 1    
   106   54  120 1    
   107   55   56 1    
   108   55   57 1    
   109   55  121 1    
   110   56  122 1    
   111   56  123 1    
   112   56  124 1    
   113   57   58 2    
   114   57   59 am   BACKBONE|DICT|INTERRES
   115   59   60 1    
   116   59  125 1    
   117   60   61 1    
   118   60   62 1    
   119   60  126 1    
   120   61  127 1    
   121   61  128 1    
   122   61  129 1    
   123   62   63 2    
   124   62   64 am   BACKBONE|DICT|INTERRES
   125   64   65 1    
   126   64  130 1    
   127   65   66 1    
   128   65   69 1    
   129   65  131 1    
   130   66   67 am   BACKBONE|DICT|INTERRES
   131   66   68 2    
   132   67  132 1    
   133   67  133 1    
   134   69   70 1    
   135   69  134 1    
   136   69  135 1    
   137   70   71 1    
   138   71  136 1    
   139   71  137 1    
@<TRIPOS>SUBSTRUCTURE
     1 UNK         1 GROUP             0       ****    0 ROOT    
