@<TRIPOS>MOLECULE
3R137
137   139    1
SMALL
USER_CHARGES


@<TRIPOS>ATOM
      1 CA         23.5805   -2.8985    0.3710 C.3       0 UNK        -0.2020 
      2 C          24.3126   -1.7546   -0.3137 C.2       0 UNK         0.4855 
      3 O          23.8151   -0.6294   -0.3302 O.2       0 UNK        -0.5197 
      4 N          25.4850   -2.0339   -0.8961 N.am      1 UNK        -0.4892 
      5 CA         26.3556   -1.0694   -1.5827 C.3       1 UNK         0.0835 
      6 C6         27.8571   -1.4327   -1.4341 C.3       12 UNK        -0.0855 
      7 S7         28.2541   -3.1550   -1.8948 S.3       12 UNK        -0.2931 
      8 C8         29.8390   -3.3842   -1.0263 C.3       12 UNK         0.0378 
      9 C9         31.0165   -2.8966   -1.8591 C.ar      12 UNK        -0.0802 
     10 C10        31.7090   -3.8006   -2.6695 C.ar      12 UNK        -0.0944 
     11 C11        32.8030   -3.3837   -3.4324 C.ar      12 UNK        -0.0787 
     12 C12        33.2065   -2.0454   -3.3774 C.ar      12 UNK        -0.0862 
     13 C13        32.5256   -1.1284   -2.5666 C.ar      12 UNK        -0.0733 
     14 C14        31.4294   -1.5598   -1.8103 C.ar      12 UNK        -0.0832 
     15 C15        33.0252    0.3076   -2.4599 C.3       12 UNK         0.0240 
     16 S16        32.7155    1.2780   -3.9713 S.3       12 UNK        -0.2522 
     17 C17        31.1266    2.1104   -3.6166 C.3       12 UNK        -0.0967 
     18 CA         30.1310    1.9833   -4.7965 C.3       5 UNK         0.0660 
     19 N          29.8341    0.5769   -5.0591 N.am      5 UNK        -0.4015 
     20 C          29.0016    0.0568   -5.9639 C.2       4 UNK         0.4946 
     21 O          28.1751    0.7124   -6.6020 O.2       4 UNK        -0.5353 
     22 CA         29.1199   -1.4545   -6.1952 C.3       4 UNK         0.0277 
     23 CB         30.0682   -2.1737   -5.2172 C.3       4 UNK        -0.1981 
     24 N          27.7994   -2.0459   -6.1004 N.am      4 UNK        -0.4209 
     25 C          27.3965   -3.1534   -6.7332 C.2       3 UNK         0.4942 
     26 O          28.1294   -3.8212   -7.4666 O.2       3 UNK        -0.5208 
     27 CA         25.9429   -3.6179   -6.5015 C.3       3 UNK         0.0250 
     28 CB         25.9114   -5.0554   -5.9537 C.3       3 UNK        -0.1990 
     29 N          25.1826   -2.7548   -5.5917 N.am      3 UNK        -0.4232 
     30 C          24.7315   -1.5272   -5.8820 C.2       2 UNK         0.4993 
     31 O          24.8509   -0.9951   -6.9846 O.2       2 UNK        -0.5286 
     32 CA         24.1030   -0.7367   -4.7236 C.3       2 UNK         0.0209 
     33 CB         22.5820   -0.9479   -4.6833 C.3       2 UNK        -0.1931 
     34 N          24.6791   -1.0559   -3.4105 N.am      2 UNK        -0.4546 
     35 C          25.9435   -0.7929   -3.0471 C.2       1 UNK         0.5154 
     36 O          26.7656   -0.3049   -3.8235 O.2       1 UNK        -0.5181 
     37 C          28.9250    2.9297   -4.5967 C.2       5 UNK         0.5014 
     38 O          29.0919    4.1270   -4.8367 O.2       5 UNK        -0.5248 
     39 N          27.7588    2.4311   -4.1561 N.am      6 UNK        -0.4434 
     40 CA         26.5977    3.2782   -3.8591 C.3       6 UNK         0.0363 
     41 CB         25.7827    2.6828   -2.6996 C.3       6 UNK        -0.1936 
     42 C          25.6875    3.5465   -5.0703 C.2       6 UNK         0.5081 
     43 O          24.8775    4.4708   -4.9812 O.2       6 UNK        -0.5248 
     44 N          25.7957    2.7713   -6.1620 N.am      7 UNK        -0.4718 
     45 CA         24.9657    2.9788   -7.3574 C.3       7 UNK         0.0273 
     46 CB         23.5755    2.3331   -7.2004 C.3       7 UNK        -0.1935 
     47 C          25.6580    2.5319   -8.6482 C.2       7 UNK         0.5018 
     48 O          25.7703    3.3399   -9.5711 O.2       7 UNK        -0.5186 
     49 N          26.1134    1.2721   -8.7057 N.am      8 UNK        -0.4240 
     50 CA         26.8246    0.7088   -9.8621 C.3       8 UNK         0.0235 
     51 CB         26.9629   -0.8105   -9.6849 C.3       8 UNK        -0.2000 
     52 C          28.2070    1.3411  -10.1147 C.2       8 UNK         0.4941 
     53 O          28.6892    1.3031  -11.2483 O.2       8 UNK        -0.5273 
     54 N          28.8216    1.8917   -9.0581 N.am      9 UNK        -0.4262 
     55 CA         30.1408    2.5279   -8.9711 C.3       9 UNK         0.0264 
     56 CB         30.2905    3.7096   -9.9495 C.3       9 UNK        -0.1955 
     57 C          31.2886    1.5168   -9.1023 C.2       9 UNK         0.5031 
     58 O          32.1169    1.4242   -8.1963 O.2       9 UNK        -0.5390 
     59 N          31.2960    0.7527  -10.1997 N.am      10 UNK        -0.4204 
     60 CA         32.1439   -0.4215  -10.3830 C.3       10 UNK         0.0237 
     61 CB         32.2393   -0.7529  -11.8810 C.3       10 UNK        -0.1985 
     62 C          31.5457   -1.5981   -9.5994 C.2       10 UNK         0.4970 
     63 O          30.3417   -1.8377   -9.7038 O.2       10 UNK        -0.4914 
     64 N          32.3894   -2.2981   -8.8344 N.am      11 UNK        -0.4285 
     65 CA         32.0142   -3.4672   -8.0312 C.3       11 UNK         0.1007 
     66 C          31.6359   -4.6789   -8.9262 C.2       11 UNK         0.5703 
     67 N          30.3928   -5.1396   -8.8715 N.am      11 UNK        -0.7361 
     68 O          32.4711   -5.2086   -9.6569 O.2       11 UNK        -0.4986 
     69 C69        33.1316   -3.7890   -7.0035 C.3       12 UNK        -0.0947 
     70 S70        32.6141   -4.9712   -5.7152 S.3       12 UNK        -0.2240 
     71 C71        33.5675   -4.3999   -4.2710 C.3       12 UNK         0.0194 
     72 H72        24.1300   -3.8368    0.2976 H         1 UNK         0.0906 
     73 H73        23.4368   -2.6719    1.4271 H         1 UNK         0.0906 
     74 H74        22.6003   -3.0427   -0.0827 H         1 UNK         0.0906 
     75 H75        25.8453   -2.9789   -0.8719 H         1 UNK         0.3140 
     76 H76        26.2298   -0.1049   -1.0857 H         1 UNK         0.1085 
     77 H77        28.4947   -0.7537   -2.0034 H         1 UNK         0.0836 
     78 H78        28.1409   -1.2860   -0.3910 H         1 UNK         0.0836 
     79 H79        29.9591   -4.4459   -0.8054 H         1 UNK         0.0731 
     80 H80        29.8224   -2.8812   -0.0585 H         1 UNK         0.0731 
     81 H81        31.3972   -4.8356   -2.7080 H         1 UNK         0.1312 
     82 H82        34.0617   -1.7171   -3.9524 H         1 UNK         0.1406 
     83 H83        30.9073   -0.8616   -1.1705 H         1 UNK         0.1631 
     84 H84        34.1017    0.2872   -2.2838 H         1 UNK         0.0717 
     85 H85        32.5946    0.8134   -1.5944 H         1 UNK         0.0717 
     86 H86        30.6856    1.7071   -2.7029 H         1 UNK         0.0934 
     87 H87        31.3508    3.1590   -3.4091 H         1 UNK         0.0934 
     88 H88        30.6385    2.3445   -5.6927 H         1 UNK         0.0739 
     89 H89        30.4491   -0.0682   -4.5847 H         1 UNK         0.3093 
     90 H90        29.4897   -1.5770   -7.2131 H         1 UNK         0.0818 
     91 H91        29.7714   -2.0062   -4.1831 H         1 UNK         0.0819 
     92 H92        30.0657   -3.2520   -5.3747 H         1 UNK         0.0819 
     93 H93        31.0981   -1.8371   -5.3387 H         1 UNK         0.0819 
     94 H94        27.1410   -1.5244   -5.5324 H         1 UNK         0.3041 
     95 H95        25.4474   -3.6087   -7.4746 H         1 UNK         0.0784 
     96 H96        26.4163   -5.7451   -6.6316 H         1 UNK         0.0793 
     97 H97        26.4096   -5.1276   -4.9859 H         1 UNK         0.0793 
     98 H98        24.8887   -5.4141   -5.8350 H         1 UNK         0.0793 
     99 H99        25.0575   -3.0922   -4.6483 H         1 UNK         0.3024 
    100 H100       24.2966    0.3204   -4.9181 H         1 UNK         0.1171 
    101 H101       22.1276   -0.6930   -5.6420 H         1 UNK         0.0786 
    102 H102       22.3226   -1.9844   -4.4641 H         1 UNK         0.0786 
    103 H103       22.1141   -0.3165   -3.9276 H         1 UNK         0.0786 
    104 H104       24.0527   -1.4181   -2.7055 H         1 UNK         0.2977 
    105 H105       27.6396    1.4262   -4.0514 H         1 UNK         0.3127 
    106 H106       26.9580    4.2503   -3.5146 H         1 UNK         0.0770 
    107 H107       25.1568    1.8550   -3.0271 H         1 UNK         0.0814 
    108 H108       25.1096    3.4335   -2.2837 H         1 UNK         0.0814 
    109 H109       26.4225    2.3382   -1.8875 H         1 UNK         0.0814 
    110 H110       26.5164    2.0570   -6.2037 H         1 UNK         0.2983 
    111 H111       24.8073    4.0537   -7.4756 H         1 UNK         0.0947 
    112 H112       22.9579    2.5264   -8.0785 H         1 UNK         0.0806 
    113 H113       23.0424    2.7348   -6.3387 H         1 UNK         0.0806 
    114 H114       23.6356    1.2537   -7.0824 H         1 UNK         0.0806 
    115 H115       25.9530    0.6458   -7.9238 H         1 UNK         0.3000 
    116 H116       26.2160    0.8941  -10.7496 H         1 UNK         0.0850 
    117 H117       27.4377   -1.2654  -10.5554 H         1 UNK         0.0810 
    118 H118       25.9930   -1.2901   -9.5529 H         1 UNK         0.0810 
    119 H119       27.5798   -1.0535   -8.8205 H         1 UNK         0.0810 
    120 H120       28.3777    1.7190   -8.1581 H         1 UNK         0.3040 
    121 H121       30.1954    2.9400   -7.9629 H         1 UNK         0.0766 
    122 H122       29.4901    4.4371   -9.8139 H         1 UNK         0.0812 
    123 H123       30.2783    3.3903  -10.9917 H         1 UNK         0.0812 
    124 H124       31.2343    4.2304   -9.7838 H         1 UNK         0.0812 
    125 H125       30.5065    0.8560  -10.8332 H         1 UNK         0.3205 
    126 H126       33.1464   -0.2007  -10.0097 H         1 UNK         0.0754 
    127 H127       32.8749   -1.6235  -12.0482 H         1 UNK         0.0769 
    128 H128       32.6691    0.0763  -12.4434 H         1 UNK         0.0769 
    129 H129       31.2604   -0.9757  -12.3083 H         1 UNK         0.0769 
    130 H130       33.3683   -2.0535   -8.8308 H         1 UNK         0.2981 
    131 H131       31.1254   -3.1875   -7.4705 H         1 UNK         0.0541 
    132 H132       30.1361   -5.9285   -9.4422 H         1 UNK         0.3459 
    133 H133       29.6834   -4.6711   -8.3136 H         1 UNK         0.3459 
    134 H134       33.4389   -2.8680   -6.5051 H         1 UNK         0.0612 
    135 H135       34.0218   -4.1781   -7.5009 H         1 UNK         0.0612 
    136 H136       34.5293   -4.0000   -4.5958 H         1 UNK         0.0624 
    137 H137       33.7971   -5.2651   -3.6476 H         1 UNK         0.0624 
@<TRIPOS>BOND
     1    1    2 1    
     2    1   72 1    
     3    1   73 1    
     4    1   74 1    
     5    2    3 2    
     6    2    4 am   BACKBONE|DICT|INTERRES
     7    4    5 1    
     8    4   75 1    
     9    5    6 1    
    10    5   35 1    
    11    5   76 1    
    12    6    7 1    
    13    6   77 1    
    14    6   78 1    
    15    7    8 1    
    16    8    9 1    
    17    8   79 1    
    18    8   80 1    
    19    9   10 ar   
    20    9   14 ar   
    21   10   11 ar   
    22   10   81 1    
    23   11   12 ar   
    24   11   71 1    
    25   12   13 ar   
    26   12   82 1    
    27   13   14 ar   
    28   13   15 1    
    29   14   83 1    
    30   15   16 1    
    31   15   84 1    
    32   15   85 1    
    33   16   17 1    
    34   17   18 1    
    35   17   86 1    
    36   17   87 1    
    37   18   19 1    
    38   18   37 1    
    39   18   88 1    
    40   19   20 am   BACKBONE|DICT|INTERRES
    41   19   89 1    
    42   20   21 2    
    43   20   22 1    
    44   22   23 1    
    45   22   24 1    
    46   22   90 1    
    47   23   91 1    
    48   23   92 1    
    49   23   93 1    
    50   24   25 am   BACKBONE|DICT|INTERRES
    51   24   94 1    
    52   25   26 2    
    53   25   27 1    
    54   27   28 1    
    55   27   29 1    
    56   27   95 1    
    57   28   96 1    
    58   28   97 1    
    59   28   98 1    
    60   29   30 am   BACKBONE|DICT|INTERRES
    61   29   99 1    
    62   30   31 2    
    63   30   32 1    
    64   32   33 1    
    65   32   34 1    
    66   32  100 1    
    67   33  101 1    
    68   33  102 1    
    69   33  103 1    
    70   34   35 am   BACKBONE|DICT|INTERRES
    71   34  104 1    
    72   35   36 2    
    73   37   38 2    
    74   37   39 am   BACKBONE|DICT|INTERRES
    75   39   40 1    
    76   39  105 1    
    77   40   41 1    
    78   40   42 1    
    79   40  106 1    
    80   41  107 1    
    81   41  108 1    
    82   41  109 1    
    83   42   43 2    
    84   42   44 am   BACKBONE|DICT|INTERRES
    85   44   45 1    
    86   44  110 1    
    87   45   46 1    
    88   45   47 1    
    89   45  111 1    
    90   46  112 1    
    91   46  113 1    
    92   46  114 1    
    93   47   48 2    
    94   47   49 am   BACKBONE|DICT|INTERRES
    95   49   50 1    
    96   49  115 1    
    97   50   51 1    
    98   50   52 1    
    99   50  116 1    
   100   51  117 1    
   101   51  118 1    
   102   51  119 1    
   103   52   53 2    
   104   52   54 am   BACKBONE|DICT|INTERRES
   105   54   55 1    
   106   54  120 1    
   107   55   56 1    
   108   55   57 1    
   109   55  121 1    
   110   56  122 1    
   111   56  123 1    
   112   56  124 1    
   113   57   58 2    
   114   57   59 am   BACKBONE|DICT|INTERRES
   115   59   60 1    
   116   59  125 1    
   117   60   61 1    
   118   60   62 1    
   119   60  126 1    
   120   61  127 1    
   121   61  128 1    
   122   61  129 1    
   123   62   63 2    
   124   62   64 am   BACKBONE|DICT|INTERRES
   125   64   65 1    
   126   64  130 1    
   127   65   66 1    
   128   65   69 1    
   129   65  131 1    
   130   66   67 am   BACKBONE|DICT|INTERRES
   131   66   68 2    
   132   67  132 1    
   133   67  133 1    
   134   69   70 1    
   135   69  134 1    
   136   69  135 1    
   137   70   71 1    
   138   71  136 1    
   139   71  137 1    
@<TRIPOS>SUBSTRUCTURE
     1 UNK         1 GROUP             0       ****    0 ROOT    
