@<TRIPOS>MOLECULE
3R137
137   139    1
SMALL
USER_CHARGES


@<TRIPOS>ATOM
      1 CA         23.0988   -1.4813   -7.1503 C.3       0 UNK        -0.2020 
      2 C          23.3090   -2.7362   -6.3150 C.2       0 UNK         0.4855 
      3 O          22.5584   -3.7020   -6.4594 O.2       0 UNK        -0.5197 
      4 N          24.3271   -2.7234   -5.4505 N.am      1 UNK        -0.4892 
      5 CA         24.6658   -3.8026   -4.5172 C.3       1 UNK         0.0835 
      6 C6         26.2021   -4.0065   -4.4498 C.3       12 UNK        -0.0855 
      7 S7         26.8596   -4.6433   -6.0267 S.3       12 UNK        -0.2931 
      8 C8         28.5719   -5.0567   -5.5725 C.3       12 UNK         0.0378 
      9 C9         29.3753   -3.8174   -5.2092 C.ar      12 UNK        -0.0802 
     10 C10        29.8581   -2.9728   -6.2134 C.ar      12 UNK        -0.0944 
     11 C11        30.5993   -1.8339   -5.8865 C.ar      12 UNK        -0.0787 
     12 C12        30.8710   -1.5527   -4.5449 C.ar      12 UNK        -0.0862 
     13 C13        30.3663   -2.3731   -3.5303 C.ar      12 UNK        -0.0733 
     14 C14        29.6286   -3.5104   -3.8690 C.ar      12 UNK        -0.0832 
     15 C15        30.5794   -2.0104   -2.0669 C.3       12 UNK         0.0240 
     16 S16        29.1555   -1.0886   -1.3913 S.3       12 UNK        -0.2522 
     17 C17        29.2245    0.4411   -2.3809 C.3       12 UNK        -0.0967 
     18 CA         28.2223    0.3998   -3.5675 C.3       5 UNK         0.0660 
     19 N          26.8531    0.6590   -3.1144 N.am      5 UNK        -0.4015 
     20 C          25.7298    0.3487   -3.7703 C.2       4 UNK         0.4946 
     21 O          25.7091   -0.2645   -4.8429 O.2       4 UNK        -0.5353 
     22 CA         24.4240    0.8143   -3.1093 C.3       4 UNK         0.0277 
     23 CB         23.2080    0.7061   -4.0480 C.3       4 UNK        -0.1981 
     24 N          24.1715    0.0552   -1.8836 N.am      4 UNK        -0.4209 
     25 C          24.6817    0.3573   -0.6801 C.2       3 UNK         0.4942 
     26 O          25.4402    1.3108   -0.4943 O.2       3 UNK        -0.5208 
     27 CA         24.2887   -0.5252    0.5206 C.3       3 UNK         0.0250 
     28 CB         23.1770    0.1530    1.3381 C.3       3 UNK        -0.1990 
     29 N          23.8465   -1.8669    0.1354 N.am      3 UNK        -0.4232 
     30 C          24.6708   -2.8712   -0.1895 C.2       2 UNK         0.4993 
     31 O          25.8981   -2.7974   -0.1246 O.2       2 UNK        -0.5286 
     32 CA         24.0338   -4.1735   -0.7161 C.3       2 UNK         0.0209 
     33 CB         22.5130   -4.2938   -0.4588 C.3       2 UNK        -0.1931 
     34 N          24.3426   -4.3576   -2.1411 N.am      2 UNK        -0.4546 
     35 C          24.0661   -3.4915   -3.1290 C.2       1 UNK         0.5154 
     36 O          23.3805   -2.4792   -2.9590 O.2       1 UNK        -0.5181 
     37 C          28.6236    1.3450   -4.7238 C.2       5 UNK         0.5014 
     38 O          29.5630    2.1307   -4.5862 O.2       5 UNK        -0.5248 
     39 N          27.8927    1.2587   -5.8404 N.am      6 UNK        -0.4434 
     40 CA         28.1049    2.0440   -7.0574 C.3       6 UNK         0.0363 
     41 CB         27.3548    3.3850   -6.9433 C.3       6 UNK        -0.1936 
     42 C          27.7033    1.2730   -8.3272 C.2       6 UNK         0.5081 
     43 O          27.6473    1.8762   -9.3996 O.2       6 UNK        -0.5248 
     44 N          27.4289   -0.0367   -8.2064 N.am      7 UNK        -0.4718 
     45 CA         26.8859   -0.8951   -9.2701 C.3       7 UNK         0.0273 
     46 CB         26.6083   -2.2900   -8.6935 C.3       7 UNK        -0.1935 
     47 C          27.7590   -1.0099  -10.5337 C.2       7 UNK         0.5018 
     48 O          27.2205   -1.2443  -11.6162 O.2       7 UNK        -0.5186 
     49 N          29.0740   -0.8250  -10.3769 N.am      8 UNK        -0.4240 
     50 CA         30.0527   -0.7408  -11.4596 C.3       8 UNK         0.0235 
     51 CB         30.8473   -2.0579  -11.5448 C.3       8 UNK        -0.2000 
     52 C          30.9414    0.4987  -11.2599 C.2       8 UNK         0.4941 
     53 O          32.1473    0.4331  -11.5037 O.2       8 UNK        -0.5273 
     54 N          30.3235    1.6055  -10.8155 N.am      9 UNK        -0.4262 
     55 CA         30.9446    2.8867  -10.4665 C.3       9 UNK         0.0264 
     56 CB         31.5597    3.5688  -11.7113 C.3       9 UNK        -0.1955 
     57 C          31.9046    2.7396   -9.2695 C.2       9 UNK         0.5031 
     58 O          31.5369    2.0966   -8.2850 O.2       9 UNK        -0.5390 
     59 N          33.0899    3.3569   -9.3433 N.am      10 UNK        -0.4204 
     60 CA         34.1123    3.3375   -8.2984 C.3       10 UNK         0.0237 
     61 CB         35.0657    4.5284   -8.5100 C.3       10 UNK        -0.1985 
     62 C          34.8601    1.9924   -8.2737 C.2       10 UNK         0.4970 
     63 O          35.9159    1.8678   -8.8976 O.2       10 UNK        -0.4914 
     64 N          34.2952    1.0130   -7.5582 N.am      11 UNK        -0.4285 
     65 CA         34.8865   -0.3201   -7.3432 C.3       11 UNK         0.1007 
     66 C          36.1625   -0.3320   -6.4499 C.2       11 UNK         0.5703 
     67 N          36.4591    0.7191   -5.6940 N.am      11 UNK        -0.7361 
     68 O          36.9007   -1.3143   -6.4487 O.2       11 UNK        -0.4986 
     69 C69        33.8453   -1.3394   -6.8104 C.3       12 UNK        -0.0947 
     70 S70        32.4401   -1.5690   -7.9482 S.3       12 UNK        -0.2240 
     71 C71        31.0640   -0.8838   -6.9796 C.3       12 UNK         0.0194 
     72 H72        23.8585   -0.7261   -6.9477 H         1 UNK         0.0906 
     73 H73        23.1401   -1.7251   -8.2115 H         1 UNK         0.0906 
     74 H74        22.1229   -1.0466   -6.9359 H         1 UNK         0.0906 
     75 H75        24.8599   -1.8652   -5.3201 H         1 UNK         0.3140 
     76 H76        24.2085   -4.7373   -4.8495 H         1 UNK         0.1085 
     77 H77        26.4811   -4.7182   -3.6716 H         1 UNK         0.0836 
     78 H78        26.7036   -3.0675   -4.2049 H         1 UNK         0.0836 
     79 H79        29.0475   -5.5621   -6.4144 H         1 UNK         0.0731 
     80 H80        28.5680   -5.7739   -4.7501 H         1 UNK         0.0731 
     81 H81        29.6512   -3.1990   -7.2503 H         1 UNK         0.1312 
     82 H82        31.4415   -0.6706   -4.2898 H         1 UNK         0.1406 
     83 H83        29.2362   -4.1454   -3.0862 H         1 UNK         0.1631 
     84 H84        31.4900   -1.4218   -1.9443 H         1 UNK         0.0717 
     85 H85        30.7232   -2.9182   -1.4791 H         1 UNK         0.0717 
     86 H86        29.0204    1.2944   -1.7317 H         1 UNK         0.0934 
     87 H87        30.2537    0.5777   -2.7150 H         1 UNK         0.0934 
     88 H88        28.2382   -0.6053   -3.9937 H         1 UNK         0.0739 
     89 H89        26.7568    1.1285   -2.2216 H         1 UNK         0.3093 
     90 H90        24.5429    1.8717   -2.8620 H         1 UNK         0.0818 
     91 H91        23.3738    1.2693   -4.9672 H         1 UNK         0.0819 
     92 H92        22.9992   -0.3239   -4.3325 H         1 UNK         0.0819 
     93 H93        22.3105    1.1089   -3.5789 H         1 UNK         0.0819 
     94 H94        23.6540   -0.8118   -2.0035 H         1 UNK         0.3041 
     95 H95        25.1701   -0.6169    1.1593 H         1 UNK         0.0784 
     96 H96        23.4860    1.1459    1.6683 H         1 UNK         0.0793 
     97 H97        22.2623    0.2734    0.7561 H         1 UNK         0.0793 
     98 H98        22.9343   -0.4223    2.2319 H         1 UNK         0.0793 
     99 H99        22.8522   -2.0094    0.0296 H         1 UNK         0.3024 
    100 H100       24.5235   -4.9866   -0.1772 H         1 UNK         0.1171 
    101 H101       22.1444   -5.2711   -0.7707 H         1 UNK         0.0786 
    102 H102       22.2846   -4.1939    0.6033 H         1 UNK         0.0786 
    103 H103       21.9333   -3.5426   -0.9960 H         1 UNK         0.0786 
    104 H104       24.9122   -5.1639   -2.3566 H         1 UNK         0.2977 
    105 H105       27.0788    0.6476   -5.8173 H         1 UNK         0.3127 
    106 H106       29.1708    2.2544   -7.1593 H         1 UNK         0.0770 
    107 H107       26.2785    3.2349   -6.8522 H         1 UNK         0.0814 
    108 H108       27.5263    4.0096   -7.8209 H         1 UNK         0.0814 
    109 H109       27.6892    3.9546   -6.0762 H         1 UNK         0.0814 
    110 H110       27.5396   -0.4705   -7.3021 H         1 UNK         0.2983 
    111 H111       25.9338   -0.4584   -9.5795 H         1 UNK         0.0947 
    112 H112       26.1200   -2.9293   -9.4302 H         1 UNK         0.0806 
    113 H113       25.9530   -2.2406   -7.8253 H         1 UNK         0.0806 
    114 H114       27.5282   -2.7897   -8.3895 H         1 UNK         0.0806 
    115 H115       29.4191   -0.6219   -9.4502 H         1 UNK         0.3000 
    116 H116       29.5433   -0.5915  -12.4141 H         1 UNK         0.0850 
    117 H117       31.5560   -2.0359  -12.3736 H         1 UNK         0.0810 
    118 H118       30.1856   -2.9084  -11.7087 H         1 UNK         0.0810 
    119 H119       31.4150   -2.2465  -10.6342 H         1 UNK         0.0810 
    120 H120       29.3327    1.5463  -10.6018 H         1 UNK         0.3040 
    121 H121       30.1312    3.5234  -10.1149 H         1 UNK         0.0766 
    122 H122       30.8320    3.6297  -12.5207 H         1 UNK         0.0812 
    123 H123       32.4279    3.0297  -12.0924 H         1 UNK         0.0812 
    124 H124       31.8700    4.5912  -11.4920 H         1 UNK         0.0812 
    125 H125       33.3286    3.8328  -10.2010 H         1 UNK         0.3205 
    126 H126       33.6272    3.4734   -7.3290 H         1 UNK         0.0754 
    127 H127       35.8491    4.5398   -7.7509 H         1 UNK         0.0769 
    128 H128       34.5347    5.4779   -8.4396 H         1 UNK         0.0769 
    129 H129       35.5562    4.4908   -9.4837 H         1 UNK         0.0769 
    130 H130       33.3816    1.1739   -7.1570 H         1 UNK         0.2981 
    131 H131       35.2137   -0.6775   -8.3215 H         1 UNK         0.0541 
    132 H132       35.8600    1.5282   -5.6825 H         1 UNK         0.3459 
    133 H133       37.2905    0.6978   -5.1248 H         1 UNK         0.3459 
    134 H134       33.4851   -1.0360   -5.8264 H         1 UNK         0.0612 
    135 H135       34.3040   -2.3204   -6.6737 H         1 UNK         0.0612 
    136 H136       30.2324   -0.6786   -7.6523 H         1 UNK         0.0624 
    137 H137       31.3546    0.0796   -6.5586 H         1 UNK         0.0624 
@<TRIPOS>BOND
     1    1    2 1    
     2    1   72 1    
     3    1   73 1    
     4    1   74 1    
     5    2    3 2    
     6    2    4 am   BACKBONE|DICT|INTERRES
     7    4    5 1    
     8    4   75 1    
     9    5    6 1    
    10    5   35 1    
    11    5   76 1    
    12    6    7 1    
    13    6   77 1    
    14    6   78 1    
    15    7    8 1    
    16    8    9 1    
    17    8   79 1    
    18    8   80 1    
    19    9   10 ar   
    20    9   14 ar   
    21   10   11 ar   
    22   10   81 1    
    23   11   12 ar   
    24   11   71 1    
    25   12   13 ar   
    26   12   82 1    
    27   13   14 ar   
    28   13   15 1    
    29   14   83 1    
    30   15   16 1    
    31   15   84 1    
    32   15   85 1    
    33   16   17 1    
    34   17   18 1    
    35   17   86 1    
    36   17   87 1    
    37   18   19 1    
    38   18   37 1    
    39   18   88 1    
    40   19   20 am   BACKBONE|DICT|INTERRES
    41   19   89 1    
    42   20   21 2    
    43   20   22 1    
    44   22   23 1    
    45   22   24 1    
    46   22   90 1    
    47   23   91 1    
    48   23   92 1    
    49   23   93 1    
    50   24   25 am   BACKBONE|DICT|INTERRES
    51   24   94 1    
    52   25   26 2    
    53   25   27 1    
    54   27   28 1    
    55   27   29 1    
    56   27   95 1    
    57   28   96 1    
    58   28   97 1    
    59   28   98 1    
    60   29   30 am   BACKBONE|DICT|INTERRES
    61   29   99 1    
    62   30   31 2    
    63   30   32 1    
    64   32   33 1    
    65   32   34 1    
    66   32  100 1    
    67   33  101 1    
    68   33  102 1    
    69   33  103 1    
    70   34   35 am   BACKBONE|DICT|INTERRES
    71   34  104 1    
    72   35   36 2    
    73   37   38 2    
    74   37   39 am   BACKBONE|DICT|INTERRES
    75   39   40 1    
    76   39  105 1    
    77   40   41 1    
    78   40   42 1    
    79   40  106 1    
    80   41  107 1    
    81   41  108 1    
    82   41  109 1    
    83   42   43 2    
    84   42   44 am   BACKBONE|DICT|INTERRES
    85   44   45 1    
    86   44  110 1    
    87   45   46 1    
    88   45   47 1    
    89   45  111 1    
    90   46  112 1    
    91   46  113 1    
    92   46  114 1    
    93   47   48 2    
    94   47   49 am   BACKBONE|DICT|INTERRES
    95   49   50 1    
    96   49  115 1    
    97   50   51 1    
    98   50   52 1    
    99   50  116 1    
   100   51  117 1    
   101   51  118 1    
   102   51  119 1    
   103   52   53 2    
   104   52   54 am   BACKBONE|DICT|INTERRES
   105   54   55 1    
   106   54  120 1    
   107   55   56 1    
   108   55   57 1    
   109   55  121 1    
   110   56  122 1    
   111   56  123 1    
   112   56  124 1    
   113   57   58 2    
   114   57   59 am   BACKBONE|DICT|INTERRES
   115   59   60 1    
   116   59  125 1    
   117   60   61 1    
   118   60   62 1    
   119   60  126 1    
   120   61  127 1    
   121   61  128 1    
   122   61  129 1    
   123   62   63 2    
   124   62   64 am   BACKBONE|DICT|INTERRES
   125   64   65 1    
   126   64  130 1    
   127   65   66 1    
   128   65   69 1    
   129   65  131 1    
   130   66   67 am   BACKBONE|DICT|INTERRES
   131   66   68 2    
   132   67  132 1    
   133   67  133 1    
   134   69   70 1    
   135   69  134 1    
   136   69  135 1    
   137   70   71 1    
   138   71  136 1    
   139   71  137 1    
@<TRIPOS>SUBSTRUCTURE
     1 UNK         1 GROUP             0       ****    0 ROOT    
