@<TRIPOS>MOLECULE
3R137
137   139    1
SMALL
USER_CHARGES


@<TRIPOS>ATOM
      1 CA         26.2337    0.9335    4.2313 C.3       0 UNK        -0.2020 
      2 C          26.5635    0.7045    2.7637 C.2       0 UNK         0.4855 
      3 O          26.8067    1.6651    2.0331 O.2       0 UNK        -0.5197 
      4 N          26.5722   -0.5581    2.3267 N.am      1 UNK        -0.4892 
      5 CA         26.8315   -0.9839    0.9531 C.3       1 UNK         0.0835 
      6 C6         28.3514   -1.0597    0.6525 C.3       12 UNK        -0.0855 
      7 S7         28.7076   -0.9139   -1.1268 S.3       12 UNK        -0.2931 
      8 C8         29.4647   -2.5273   -1.4880 C.3       12 UNK         0.0378 
      9 C9         29.8149   -2.6550   -2.9645 C.ar      12 UNK        -0.0802 
     10 C10        30.8851   -1.9302   -3.4982 C.ar      12 UNK        -0.0944 
     11 C11        31.2209   -2.0509   -4.8502 C.ar      12 UNK        -0.0787 
     12 C12        30.4809   -2.9080   -5.6714 C.ar      12 UNK        -0.0862 
     13 C13        29.4240   -3.6546   -5.1448 C.ar      12 UNK        -0.0733 
     14 C14        29.0891   -3.5149   -3.7945 C.ar      12 UNK        -0.0832 
     15 C15        28.6738   -4.6536   -6.0123 C.3       12 UNK         0.0240 
     16 S16        27.0848   -3.9956   -6.6001 S.3       12 UNK        -0.2522 
     17 C17        27.5419   -3.1721   -8.1677 C.3       12 UNK        -0.0967 
     18 CA         27.1314   -1.6803   -8.2408 C.3       5 UNK         0.0660 
     19 N          25.7417   -1.4622   -7.8171 N.am      5 UNK        -0.4015 
     20 C          25.0946   -0.2885   -7.7924 C.2       4 UNK         0.4946 
     21 O          25.5625    0.7519   -8.2565 O.2       4 UNK        -0.5353 
     22 CA         23.7293   -0.2332   -7.0841 C.3       4 UNK         0.0277 
     23 CB         22.6007   -0.1400   -8.1234 C.3       4 UNK        -0.1981 
     24 N          23.4422   -1.3363   -6.1558 N.am      4 UNK        -0.4209 
     25 C          24.1729   -1.7030   -5.0915 C.2       3 UNK         0.4942 
     26 O          25.2581   -1.1990   -4.7873 O.2       3 UNK        -0.5208 
     27 CA         23.5922   -2.8452   -4.2477 C.3       3 UNK         0.0250 
     28 CB         23.4998   -4.1592   -5.0530 C.3       3 UNK        -0.1990 
     29 N          24.4084   -3.0509   -3.0515 N.am      3 UNK        -0.4232 
     30 C          23.9875   -3.6770   -1.9444 C.2       2 UNK         0.4993 
     31 O          22.8393   -4.0971   -1.7939 O.2       2 UNK        -0.5286 
     32 CA         25.0015   -3.8782   -0.8129 C.3       2 UNK         0.0209 
     33 CB         25.9959   -5.0049   -1.1473 C.3       2 UNK        -0.1931 
     34 N          25.7132   -2.6413   -0.4797 N.am      2 UNK        -0.4546 
     35 C          26.1271   -2.3371    0.7568 C.2       1 UNK         0.5154 
     36 O          25.9761   -3.0807    1.7321 O.2       1 UNK        -0.5181 
     37 C          28.1471   -0.7684   -7.5198 C.2       5 UNK         0.5014 
     38 O          29.1506   -0.3963   -8.1313 O.2       5 UNK        -0.5248 
     39 N          27.8309   -0.3498   -6.2860 N.am      6 UNK        -0.4434 
     40 CA         28.5611    0.6567   -5.5134 C.3       6 UNK         0.0363 
     41 CB         27.8678    0.8139   -4.1545 C.3       6 UNK        -0.1936 
     42 C          28.6788    2.0315   -6.2016 C.2       6 UNK         0.5081 
     43 O          29.6098    2.7727   -5.8876 O.2       6 UNK        -0.5248 
     44 N          27.7511    2.3476   -7.1156 N.am      7 UNK        -0.4718 
     45 CA         27.7622    3.5567   -7.9383 C.3       7 UNK         0.0273 
     46 CB         26.4433    4.3194   -7.7310 C.3       7 UNK        -0.1935 
     47 C          27.9590    3.2228   -9.4248 C.2       7 UNK         0.5018 
     48 O          28.6900    3.9420  -10.1056 O.2       7 UNK        -0.5186 
     49 N          27.2960    2.1625   -9.9115 N.am      8 UNK        -0.4240 
     50 CA         27.2834    1.7704  -11.3234 C.3       8 UNK         0.0235 
     51 CB         26.1297    0.7864  -11.5784 C.3       8 UNK        -0.2000 
     52 C          28.6176    1.1896  -11.8185 C.2       8 UNK         0.4941 
     53 O          29.0117    1.4869  -12.9471 O.2       8 UNK        -0.5273 
     54 N          29.2847    0.3838  -10.9809 N.am      9 UNK        -0.4262 
     55 CA         30.6214   -0.1547  -11.2478 C.3       9 UNK         0.0264 
     56 CB         30.6754   -1.6477  -10.8776 C.3       9 UNK        -0.1955 
     57 C          31.6763    0.6437  -10.4716 C.2       9 UNK         0.5031 
     58 O          32.7245    0.9653  -11.0318 O.2       9 UNK        -0.5390 
     59 N          31.3768    0.9479   -9.1991 N.am      10 UNK        -0.4204 
     60 CA         32.1468    1.7791   -8.2638 C.3       10 UNK         0.0237 
     61 CB         32.2482    3.2319   -8.7736 C.3       10 UNK        -0.1985 
     62 C          33.5183    1.2117   -7.8474 C.2       10 UNK         0.4970 
     63 O          34.2563    1.9037   -7.1446 O.2       10 UNK        -0.4914 
     64 N          33.8198   -0.0357   -8.2380 N.am      11 UNK        -0.4285 
     65 CA         35.0313   -0.7922   -7.8769 C.3       11 UNK         0.1007 
     66 C          36.3632   -0.1689   -8.4010 C.2       11 UNK         0.5703 
     67 N          36.3332    0.6578   -9.4403 N.am      11 UNK        -0.7361 
     68 O          37.4419   -0.4612   -7.8896 O.2       11 UNK        -0.4986 
     69 C69        35.0627   -1.1580   -6.3626 C.3       12 UNK        -0.0947 
     70 S70        33.7571   -2.3474   -5.9028 S.3       12 UNK        -0.2240 
     71 C71        32.3800   -1.2552   -5.4277 C.3       12 UNK         0.0194 
     72 H72        26.0525   -0.0023    4.7595 H         1 UNK         0.0906 
     73 H73        27.0582    1.4468    4.7253 H         1 UNK         0.0906 
     74 H74        25.3422    1.5531    4.3235 H         1 UNK         0.0906 
     75 H75        26.3243   -1.3256    2.9415 H         1 UNK         0.3140 
     76 H76        26.3598   -0.2589    0.2852 H         1 UNK         0.1085 
     77 H77        28.7996   -1.9641    1.0693 H         1 UNK         0.0836 
     78 H78        28.8695   -0.2293    1.1350 H         1 UNK         0.0836 
     79 H79        28.7822   -3.3221   -1.1825 H         1 UNK         0.0731 
     80 H80        30.3690   -2.6459   -0.8891 H         1 UNK         0.0731 
     81 H81        31.4519   -1.2685   -2.8574 H         1 UNK         0.1312 
     82 H82        30.7456   -3.0077   -6.7152 H         1 UNK         0.1406 
     83 H83        28.2713   -4.0929   -3.3910 H         1 UNK         0.1631 
     84 H84        28.4764   -5.5541   -5.4288 H         1 UNK         0.0717 
     85 H85        29.2849   -4.9766   -6.8564 H         1 UNK         0.0717 
     86 H86        28.6086   -3.2929   -8.3676 H         1 UNK         0.0934 
     87 H87        27.0408   -3.7165   -8.9696 H         1 UNK         0.0934 
     88 H88        27.1759   -1.3919   -9.2916 H         1 UNK         0.0739 
     89 H89        25.2935   -2.2583   -7.3874 H         1 UNK         0.3093 
     90 H90        23.7253    0.6861   -6.4949 H         1 UNK         0.0818 
     91 H91        21.6345    0.0310   -7.6484 H         1 UNK         0.0819 
     92 H92        22.7696    0.6897   -8.8119 H         1 UNK         0.0819 
     93 H93        22.5267   -1.0489   -8.7219 H         1 UNK         0.0819 
     94 H94        22.5732   -1.8251   -6.3180 H         1 UNK         0.3041 
     95 H95        22.5895   -2.5391   -3.9413 H         1 UNK         0.0784 
     96 H96        22.9250   -4.0354   -5.9712 H         1 UNK         0.0793 
     97 H97        24.4859   -4.5300   -5.3307 H         1 UNK         0.0793 
     98 H98        23.0059   -4.9424   -4.4779 H         1 UNK         0.0793 
     99 H99        25.3496   -2.6874   -3.1257 H         1 UNK         0.3024 
    100 H100       24.4208   -4.1951    0.0574 H         1 UNK         0.1171 
    101 H101       26.6641   -5.2076   -0.3101 H         1 UNK         0.0786 
    102 H102       25.4701   -5.9336   -1.3733 H         1 UNK         0.0786 
    103 H103       26.6076   -4.7592   -2.0134 H         1 UNK         0.0786 
    104 H104       25.8455   -1.9681   -1.2215 H         1 UNK         0.2977 
    105 H105       26.9866   -0.7144   -5.8549 H         1 UNK         0.3127 
    106 H106       29.5710    0.2769   -5.3510 H         1 UNK         0.0770 
    107 H107       26.8823    1.2709   -4.2538 H         1 UNK         0.0814 
    108 H108       27.7329   -0.1540   -3.6745 H         1 UNK         0.0814 
    109 H109       28.4573    1.4377   -3.4815 H         1 UNK         0.0814 
    110 H110       27.0161    1.6763   -7.3148 H         1 UNK         0.2983 
    111 H111       28.5836    4.2137   -7.6433 H         1 UNK         0.0947 
    112 H112       26.3244    4.6249   -6.6914 H         1 UNK         0.0806 
    113 H113       25.5774    3.7137   -8.0023 H         1 UNK         0.0806 
    114 H114       26.4148    5.2240   -8.3400 H         1 UNK         0.0806 
    115 H115       26.6711    1.6471   -9.2925 H         1 UNK         0.3000 
    116 H116       27.0856    2.6699  -11.9108 H         1 UNK         0.0850 
    117 H117       26.0698    0.5219  -12.6350 H         1 UNK         0.0810 
    118 H118       25.1697    1.2211  -11.2988 H         1 UNK         0.0810 
    119 H119       26.2509   -0.1396  -11.0179 H         1 UNK         0.0810 
    120 H120       28.9099    0.2202  -10.0541 H         1 UNK         0.3040 
    121 H121       30.8584   -0.0710  -12.3106 H         1 UNK         0.0766 
    122 H122       30.5089   -1.8212   -9.8148 H         1 UNK         0.0812 
    123 H123       31.6495   -2.0716  -11.1249 H         1 UNK         0.0812 
    124 H124       29.9271   -2.2171  -11.4290 H         1 UNK         0.0812 
    125 H125       30.5253    0.5435   -8.8089 H         1 UNK         0.3205 
    126 H126       31.5602    1.7974   -7.3460 H         1 UNK         0.0754 
    127 H127       32.6878    3.8842   -8.0181 H         1 UNK         0.0769 
    128 H128       31.2641    3.6358   -9.0111 H         1 UNK         0.0769 
    129 H129       32.8673    3.3067   -9.6679 H         1 UNK         0.0769 
    130 H130       33.1675   -0.5149   -8.8391 H         1 UNK         0.2981 
    131 H131       34.9576   -1.7301   -8.4283 H         1 UNK         0.0541 
    132 H132       35.4561    0.8936   -9.8789 H         1 UNK         0.3459 
    133 H133       37.1947    1.0505   -9.7853 H         1 UNK         0.3459 
    134 H134       34.9979   -0.2690   -5.7341 H         1 UNK         0.0612 
    135 H135       36.0079   -1.6369   -6.1025 H         1 UNK         0.0612 
    136 H136       32.7352   -0.5100   -4.7143 H         1 UNK         0.0624 
    137 H137       32.0195   -0.7114   -6.2997 H         1 UNK         0.0624 
@<TRIPOS>BOND
     1    1    2 1    
     2    1   72 1    
     3    1   73 1    
     4    1   74 1    
     5    2    3 2    
     6    2    4 am   BACKBONE|DICT|INTERRES
     7    4    5 1    
     8    4   75 1    
     9    5    6 1    
    10    5   35 1    
    11    5   76 1    
    12    6    7 1    
    13    6   77 1    
    14    6   78 1    
    15    7    8 1    
    16    8    9 1    
    17    8   79 1    
    18    8   80 1    
    19    9   10 ar   
    20    9   14 ar   
    21   10   11 ar   
    22   10   81 1    
    23   11   12 ar   
    24   11   71 1    
    25   12   13 ar   
    26   12   82 1    
    27   13   14 ar   
    28   13   15 1    
    29   14   83 1    
    30   15   16 1    
    31   15   84 1    
    32   15   85 1    
    33   16   17 1    
    34   17   18 1    
    35   17   86 1    
    36   17   87 1    
    37   18   19 1    
    38   18   37 1    
    39   18   88 1    
    40   19   20 am   BACKBONE|DICT|INTERRES
    41   19   89 1    
    42   20   21 2    
    43   20   22 1    
    44   22   23 1    
    45   22   24 1    
    46   22   90 1    
    47   23   91 1    
    48   23   92 1    
    49   23   93 1    
    50   24   25 am   BACKBONE|DICT|INTERRES
    51   24   94 1    
    52   25   26 2    
    53   25   27 1    
    54   27   28 1    
    55   27   29 1    
    56   27   95 1    
    57   28   96 1    
    58   28   97 1    
    59   28   98 1    
    60   29   30 am   BACKBONE|DICT|INTERRES
    61   29   99 1    
    62   30   31 2    
    63   30   32 1    
    64   32   33 1    
    65   32   34 1    
    66   32  100 1    
    67   33  101 1    
    68   33  102 1    
    69   33  103 1    
    70   34   35 am   BACKBONE|DICT|INTERRES
    71   34  104 1    
    72   35   36 2    
    73   37   38 2    
    74   37   39 am   BACKBONE|DICT|INTERRES
    75   39   40 1    
    76   39  105 1    
    77   40   41 1    
    78   40   42 1    
    79   40  106 1    
    80   41  107 1    
    81   41  108 1    
    82   41  109 1    
    83   42   43 2    
    84   42   44 am   BACKBONE|DICT|INTERRES
    85   44   45 1    
    86   44  110 1    
    87   45   46 1    
    88   45   47 1    
    89   45  111 1    
    90   46  112 1    
    91   46  113 1    
    92   46  114 1    
    93   47   48 2    
    94   47   49 am   BACKBONE|DICT|INTERRES
    95   49   50 1    
    96   49  115 1    
    97   50   51 1    
    98   50   52 1    
    99   50  116 1    
   100   51  117 1    
   101   51  118 1    
   102   51  119 1    
   103   52   53 2    
   104   52   54 am   BACKBONE|DICT|INTERRES
   105   54   55 1    
   106   54  120 1    
   107   55   56 1    
   108   55   57 1    
   109   55  121 1    
   110   56  122 1    
   111   56  123 1    
   112   56  124 1    
   113   57   58 2    
   114   57   59 am   BACKBONE|DICT|INTERRES
   115   59   60 1    
   116   59  125 1    
   117   60   61 1    
   118   60   62 1    
   119   60  126 1    
   120   61  127 1    
   121   61  128 1    
   122   61  129 1    
   123   62   63 2    
   124   62   64 am   BACKBONE|DICT|INTERRES
   125   64   65 1    
   126   64  130 1    
   127   65   66 1    
   128   65   69 1    
   129   65  131 1    
   130   66   67 am   BACKBONE|DICT|INTERRES
   131   66   68 2    
   132   67  132 1    
   133   67  133 1    
   134   69   70 1    
   135   69  134 1    
   136   69  135 1    
   137   70   71 1    
   138   71  136 1    
   139   71  137 1    
@<TRIPOS>SUBSTRUCTURE
     1 UNK         1 GROUP             0       ****    0 ROOT    
