@<TRIPOS>MOLECULE
3R137
137   139    1
SMALL
USER_CHARGES


@<TRIPOS>ATOM
      1 CA         29.3272   -0.1898    1.3660 C.3       0 UNK        -0.2020 
      2 C          29.4471   -0.6633   -0.0743 C.2       0 UNK         0.4855 
      3 O          30.3585   -0.2395   -0.7847 O.2       0 UNK        -0.5197 
      4 N          28.5262   -1.5284   -0.5173 N.am      1 UNK        -0.4892 
      5 CA         28.4698   -2.1257   -1.8592 C.3       1 UNK         0.0835 
      6 C6         27.6637   -3.4529   -1.8409 C.3       12 UNK        -0.0855 
      7 S7         28.5360   -4.7438   -0.8839 S.3       12 UNK        -0.2931 
      8 C8         28.9636   -5.9884   -2.1536 C.3       12 UNK         0.0378 
      9 C9         29.5895   -5.3833   -3.4054 C.ar      12 UNK        -0.0802 
     10 C10        30.7507   -4.6107   -3.3194 C.ar      12 UNK        -0.0944 
     11 C11        31.2837   -4.0016   -4.4587 C.ar      12 UNK        -0.0787 
     12 C12        30.6611   -4.1873   -5.6957 C.ar      12 UNK        -0.0862 
     13 C13        29.5089   -4.9720   -5.8005 C.ar      12 UNK        -0.0733 
     14 C14        28.9877   -5.5791   -4.6523 C.ar      12 UNK        -0.0832 
     15 C15        28.8446   -5.1576   -7.1616 C.3       12 UNK         0.0240 
     16 S16        27.0287   -4.9811   -7.1327 S.3       12 UNK        -0.2522 
     17 C17        26.7985   -3.3985   -6.2537 C.3       12 UNK        -0.0967 
     18 CA         25.3694   -2.8379   -6.4635 C.3       5 UNK         0.0660 
     19 N          24.9072   -2.0869   -5.2952 N.am      5 UNK        -0.4015 
     20 C          23.6200   -1.8333   -5.0250 C.2       4 UNK         0.4946 
     21 O          22.6923   -2.1476   -5.7730 O.2       4 UNK        -0.5353 
     22 CA         23.2895   -1.1648   -3.6832 C.3       4 UNK         0.0277 
     23 CB         23.2524   -2.2175   -2.5616 C.3       4 UNK        -0.1981 
     24 N          24.2362   -0.1090   -3.3143 N.am      4 UNK        -0.4209 
     25 C          23.8846    1.1507   -3.0147 C.2       3 UNK         0.4942 
     26 O          22.7331    1.5791   -3.1088 O.2       3 UNK        -0.5208 
     27 CA         24.9735    2.1009   -2.4787 C.3       3 UNK         0.0250 
     28 CB         24.8014    2.3092   -0.9645 C.3       3 UNK        -0.1990 
     29 N          26.3382    1.6422   -2.7349 N.am      3 UNK        -0.4232 
     30 C          26.9535    1.7059   -3.9221 C.2       2 UNK         0.4993 
     31 O          26.4511    2.2126   -4.9243 O.2       2 UNK        -0.5286 
     32 CA         28.3665    1.1019   -4.0052 C.3       2 UNK         0.0209 
     33 CB         29.4094    2.2117   -3.7882 C.3       2 UNK        -0.1931 
     34 N          28.6363    0.0111   -3.0578 N.am      2 UNK        -0.4546 
     35 C          27.9323   -1.1183   -2.8996 C.2       1 UNK         0.5154 
     36 O          26.8811   -1.3497   -3.5010 O.2       1 UNK        -0.5181 
     37 C          25.2828   -2.0025   -7.7527 C.2       5 UNK         0.5014 
     38 O          25.5202   -0.7927   -7.7215 O.2       5 UNK        -0.5248 
     39 N          25.0223   -2.6859   -8.8766 N.am      6 UNK        -0.4434 
     40 CA         24.9487   -2.1176  -10.2286 C.3       6 UNK         0.0363 
     41 CB         24.4573   -3.2009  -11.2025 C.3       6 UNK        -0.1936 
     42 C          26.2687   -1.5014  -10.7318 C.2       6 UNK         0.5081 
     43 O          26.2366   -0.6824  -11.6503 O.2       6 UNK        -0.5248 
     44 N          27.3969   -1.8828  -10.1143 N.am      7 UNK        -0.4718 
     45 CA         28.7149   -1.2740  -10.3158 C.3       7 UNK         0.0273 
     46 CB         29.7701   -2.1084   -9.5711 C.3       7 UNK        -0.1935 
     47 C          28.7819    0.1949   -9.8567 C.2       7 UNK         0.5018 
     48 O          29.5796    0.9569  -10.4059 O.2       7 UNK        -0.5186 
     49 N          27.9492    0.5622   -8.8682 N.am      8 UNK        -0.4240 
     50 CA         27.8128    1.8946   -8.2759 C.3       8 UNK         0.0235 
     51 CB         27.0028    2.8060   -9.2261 C.3       8 UNK        -0.2000 
     52 C          29.1730    2.4747   -7.8399 C.2       8 UNK         0.4941 
     53 O          29.8863    1.8264   -7.0729 O.2       8 UNK        -0.5273 
     54 N          29.5323    3.6492   -8.3746 N.am      9 UNK        -0.4262 
     55 CA         30.7768    4.3765   -8.1130 C.3       9 UNK         0.0264 
     56 CB         30.7061    5.7444   -8.8130 C.3       9 UNK        -0.1955 
     57 C          32.0748    3.6383   -8.4994 C.2       9 UNK         0.5031 
     58 O          33.1446    4.0809   -8.0774 O.2       9 UNK        -0.5390 
     59 N          31.9898    2.5427   -9.2724 N.am      10 UNK        -0.4204 
     60 CA         33.1328    1.6695   -9.5579 C.3       10 UNK         0.0237 
     61 CB         32.8241    0.7674  -10.7626 C.3       10 UNK        -0.1985 
     62 C          33.5652    0.8321   -8.3386 C.2       10 UNK         0.4970 
     63 O          34.7257    0.4224   -8.2881 O.2       10 UNK        -0.4914 
     64 N          32.6561    0.6051   -7.3780 N.am      11 UNK        -0.4285 
     65 CA         32.9844    0.0507   -6.0607 C.3       11 UNK         0.1007 
     66 C          33.5915    1.1659   -5.1636 C.2       11 UNK         0.5703 
     67 N          34.7719    0.9442   -4.6004 N.am      11 UNK        -0.7361 
     68 O          32.9915    2.2190   -4.9600 O.2       11 UNK        -0.4986 
     69 C69        31.7468   -0.6385   -5.4277 C.3       12 UNK        -0.0947 
     70 S70        32.1092   -1.4447   -3.8294 S.3       12 UNK        -0.2240 
     71 C71        32.5278   -3.1375   -4.3428 C.3       12 UNK         0.0194 
     72 H72        29.2106    0.8931    1.3963 H         1 UNK         0.0906 
     73 H73        28.4735   -0.6377    1.8740 H         1 UNK         0.0906 
     74 H74        30.2274   -0.4510    1.9216 H         1 UNK         0.0906 
     75 H75        27.8025   -1.8372    0.1164 H         1 UNK         0.3140 
     76 H76        29.4894   -2.3587   -2.1738 H         1 UNK         0.1085 
     77 H77        26.6761   -3.2978   -1.4030 H         1 UNK         0.0836 
     78 H78        27.4807   -3.8184   -2.8516 H         1 UNK         0.0836 
     79 H79        28.0602   -6.5462   -2.4053 H         1 UNK         0.0731 
     80 H80        29.6582   -6.7102   -1.7218 H         1 UNK         0.0731 
     81 H81        31.2218   -4.4574   -2.3577 H         1 UNK         0.1312 
     82 H82        31.0750   -3.7186   -6.5779 H         1 UNK         0.1406 
     83 H83        28.0949   -6.1849   -4.7288 H         1 UNK         0.1631 
     84 H84        29.0930   -6.1500   -7.5395 H         1 UNK         0.0717 
     85 H85        29.2453   -4.4470   -7.8836 H         1 UNK         0.0717 
     86 H86        26.9668   -3.6031   -5.1960 H         1 UNK         0.0934 
     87 H87        27.5710   -2.6812   -6.5403 H         1 UNK         0.0934 
     88 H88        24.6822   -3.6815   -6.5664 H         1 UNK         0.0739 
     89 H89        25.6286   -1.7836   -4.6435 H         1 UNK         0.3093 
     90 H90        22.2827   -0.7537   -3.7837 H         1 UNK         0.0818 
     91 H91        22.5587   -3.0240   -2.8034 H         1 UNK         0.0819 
     92 H92        24.2325   -2.6670   -2.3959 H         1 UNK         0.0819 
     93 H93        22.9223   -1.7791   -1.6197 H         1 UNK         0.0819 
     94 H94        25.2142   -0.3741   -3.2530 H         1 UNK         0.3041 
     95 H95        24.8351    3.0649   -2.9733 H         1 UNK         0.0784 
     96 H96        23.8053    2.6894   -0.7327 H         1 UNK         0.0793 
     97 H97        24.9310    1.3783   -0.4108 H         1 UNK         0.0793 
     98 H98        25.5189    3.0337   -0.5787 H         1 UNK         0.0793 
     99 H99        26.8332    1.2186   -1.9639 H         1 UNK         0.3024 
    100 H100       28.4864    0.6961   -5.0118 H         1 UNK         0.1171 
    101 H101       29.3176    2.6640   -2.8000 H         1 UNK         0.0786 
    102 H102       29.2916    3.0072   -4.5254 H         1 UNK         0.0786 
    103 H103       30.4271    1.8358   -3.8855 H         1 UNK         0.0786 
    104 H104       29.4580    0.1142   -2.4669 H         1 UNK         0.2977 
    105 H105       24.8762   -3.6834   -8.8049 H         1 UNK         0.3127 
    106 H106       24.2094   -1.3142  -10.2066 H         1 UNK         0.0770 
    107 H107       25.1472   -4.0445  -11.2497 H         1 UNK         0.0814 
    108 H108       24.3612   -2.8024  -12.2136 H         1 UNK         0.0814 
    109 H109       23.4775   -3.5816  -10.9136 H         1 UNK         0.0814 
    110 H110       27.3236   -2.5860   -9.3942 H         1 UNK         0.2983 
    111 H111       28.9399   -1.2963  -11.3843 H         1 UNK         0.0947 
    112 H112       29.7762   -3.1416   -9.9185 H         1 UNK         0.0806 
    113 H113       29.5961   -2.1102   -8.4943 H         1 UNK         0.0806 
    114 H114       30.7720   -1.7120   -9.7335 H         1 UNK         0.0806 
    115 H115       27.3081   -0.1317   -8.4984 H         1 UNK         0.3000 
    116 H116       27.2298    1.7633   -7.3647 H         1 UNK         0.0850 
    117 H117       26.8065    3.7795   -8.7746 H         1 UNK         0.0810 
    118 H118       26.0321    2.3623   -9.4492 H         1 UNK         0.0810 
    119 H119       27.5119    2.9670  -10.1773 H         1 UNK         0.0810 
    120 H120       28.8923    4.0809   -9.0253 H         1 UNK         0.3040 
    121 H121       30.8267    4.5468   -7.0354 H         1 UNK         0.0766 
    122 H122       30.6291    5.6391   -9.8959 H         1 UNK         0.0812 
    123 H123       29.8501    6.3250   -8.4683 H         1 UNK         0.0812 
    124 H124       31.5984    6.3373   -8.6067 H         1 UNK         0.0812 
    125 H125       31.0794    2.2251   -9.5911 H         1 UNK         0.3205 
    126 H126       33.9794    2.3033   -9.8312 H         1 UNK         0.0754 
    127 H127       33.7048    0.1928  -11.0526 H         1 UNK         0.0769 
    128 H128       32.5172    1.3516  -11.6303 H         1 UNK         0.0769 
    129 H129       32.0327    0.0537  -10.5415 H         1 UNK         0.0769 
    130 H130       31.7369    1.0292   -7.4533 H         1 UNK         0.2981 
    131 H131       33.7389   -0.7259   -6.2023 H         1 UNK         0.0541 
    132 H132       35.2686    0.0809   -4.7546 H         1 UNK         0.3459 
    133 H133       35.1726    1.6547   -4.0087 H         1 UNK         0.3459 
    134 H134       31.3387   -1.3786   -6.1159 H         1 UNK         0.0612 
    135 H135       30.9477    0.0843   -5.2701 H         1 UNK         0.0612 
    136 H136       33.0796   -3.1177   -5.2839 H         1 UNK         0.0624 
    137 H137       33.2034   -3.5691   -3.6029 H         1 UNK         0.0624 
@<TRIPOS>BOND
     1    1    2 1    
     2    1   72 1    
     3    1   73 1    
     4    1   74 1    
     5    2    3 2    
     6    2    4 am   BACKBONE|DICT|INTERRES
     7    4    5 1    
     8    4   75 1    
     9    5    6 1    
    10    5   35 1    
    11    5   76 1    
    12    6    7 1    
    13    6   77 1    
    14    6   78 1    
    15    7    8 1    
    16    8    9 1    
    17    8   79 1    
    18    8   80 1    
    19    9   10 ar   
    20    9   14 ar   
    21   10   11 ar   
    22   10   81 1    
    23   11   12 ar   
    24   11   71 1    
    25   12   13 ar   
    26   12   82 1    
    27   13   14 ar   
    28   13   15 1    
    29   14   83 1    
    30   15   16 1    
    31   15   84 1    
    32   15   85 1    
    33   16   17 1    
    34   17   18 1    
    35   17   86 1    
    36   17   87 1    
    37   18   19 1    
    38   18   37 1    
    39   18   88 1    
    40   19   20 am   BACKBONE|DICT|INTERRES
    41   19   89 1    
    42   20   21 2    
    43   20   22 1    
    44   22   23 1    
    45   22   24 1    
    46   22   90 1    
    47   23   91 1    
    48   23   92 1    
    49   23   93 1    
    50   24   25 am   BACKBONE|DICT|INTERRES
    51   24   94 1    
    52   25   26 2    
    53   25   27 1    
    54   27   28 1    
    55   27   29 1    
    56   27   95 1    
    57   28   96 1    
    58   28   97 1    
    59   28   98 1    
    60   29   30 am   BACKBONE|DICT|INTERRES
    61   29   99 1    
    62   30   31 2    
    63   30   32 1    
    64   32   33 1    
    65   32   34 1    
    66   32  100 1    
    67   33  101 1    
    68   33  102 1    
    69   33  103 1    
    70   34   35 am   BACKBONE|DICT|INTERRES
    71   34  104 1    
    72   35   36 2    
    73   37   38 2    
    74   37   39 am   BACKBONE|DICT|INTERRES
    75   39   40 1    
    76   39  105 1    
    77   40   41 1    
    78   40   42 1    
    79   40  106 1    
    80   41  107 1    
    81   41  108 1    
    82   41  109 1    
    83   42   43 2    
    84   42   44 am   BACKBONE|DICT|INTERRES
    85   44   45 1    
    86   44  110 1    
    87   45   46 1    
    88   45   47 1    
    89   45  111 1    
    90   46  112 1    
    91   46  113 1    
    92   46  114 1    
    93   47   48 2    
    94   47   49 am   BACKBONE|DICT|INTERRES
    95   49   50 1    
    96   49  115 1    
    97   50   51 1    
    98   50   52 1    
    99   50  116 1    
   100   51  117 1    
   101   51  118 1    
   102   51  119 1    
   103   52   53 2    
   104   52   54 am   BACKBONE|DICT|INTERRES
   105   54   55 1    
   106   54  120 1    
   107   55   56 1    
   108   55   57 1    
   109   55  121 1    
   110   56  122 1    
   111   56  123 1    
   112   56  124 1    
   113   57   58 2    
   114   57   59 am   BACKBONE|DICT|INTERRES
   115   59   60 1    
   116   59  125 1    
   117   60   61 1    
   118   60   62 1    
   119   60  126 1    
   120   61  127 1    
   121   61  128 1    
   122   61  129 1    
   123   62   63 2    
   124   62   64 am   BACKBONE|DICT|INTERRES
   125   64   65 1    
   126   64  130 1    
   127   65   66 1    
   128   65   69 1    
   129   65  131 1    
   130   66   67 am   BACKBONE|DICT|INTERRES
   131   66   68 2    
   132   67  132 1    
   133   67  133 1    
   134   69   70 1    
   135   69  134 1    
   136   69  135 1    
   137   70   71 1    
   138   71  136 1    
   139   71  137 1    
@<TRIPOS>SUBSTRUCTURE
     1 UNK         1 GROUP             0       ****    0 ROOT    
