@<TRIPOS>MOLECULE
3R137
137   139    1
SMALL
USER_CHARGES


@<TRIPOS>ATOM
      1 CA         28.6120   -4.7510    2.2847 C.3       0 UNK        -0.2020 
      2 C          28.4015   -3.2622    2.0533 C.2       0 UNK         0.4855 
      3 O          29.1788   -2.4486    2.5532 O.2       0 UNK        -0.5197 
      4 N          27.3569   -2.9015    1.3031 N.am      1 UNK        -0.4892 
      5 CA         26.9656   -1.5299    0.9799 C.3       1 UNK         0.0835 
      6 C6         27.9370   -0.8329   -0.0176 C.3       12 UNK        -0.0855 
      7 S7         27.9873   -1.5737   -1.6890 S.3       12 UNK        -0.2931 
      8 C8         29.5727   -2.4736   -1.6416 C.3       12 UNK         0.0378 
      9 C9         30.0293   -2.8787   -3.0375 C.ar      12 UNK        -0.0802 
     10 C10        31.1964   -2.3392   -3.5892 C.ar      12 UNK        -0.0944 
     11 C11        31.6161   -2.7059   -4.8731 C.ar      12 UNK        -0.0787 
     12 C12        30.8477   -3.6131   -5.6122 C.ar      12 UNK        -0.0862 
     13 C13        29.6778   -4.1558   -5.0731 C.ar      12 UNK        -0.0733 
     14 C14        29.2861   -3.7990   -3.7797 C.ar      12 UNK        -0.0832 
     15 C15        28.8438   -5.1503   -5.8648 C.3       12 UNK         0.0240 
     16 S16        27.1989   -4.4811   -6.2679 S.3       12 UNK        -0.2522 
     17 C17        27.4465   -3.6998   -7.8997 C.3       12 UNK        -0.0967 
     18 CA         27.1230   -2.1832   -7.9646 C.3       5 UNK         0.0660 
     19 N          25.9147   -1.7997   -7.2217 N.am      5 UNK        -0.4015 
     20 C          25.3323   -0.5929   -7.2525 C.2       4 UNK         0.4946 
     21 O          25.7394    0.3315   -7.9585 O.2       4 UNK        -0.5353 
     22 CA         24.1409   -0.3297   -6.3124 C.3       4 UNK         0.0277 
     23 CB         22.8029   -0.5065   -7.0560 C.3       4 UNK        -0.1981 
     24 N          24.1665   -1.0751   -5.0416 N.am      4 UNK        -0.4209 
     25 C          24.0088   -2.3915   -4.8341 C.2       3 UNK         0.4942 
     26 O          23.8303   -3.2029   -5.7422 O.2       3 UNK        -0.5208 
     27 CA         24.1145   -2.9082   -3.3875 C.3       3 UNK         0.0250 
     28 CB         25.2877   -3.8910   -3.2492 C.3       3 UNK        -0.1990 
     29 N          24.2901   -1.8480   -2.3915 N.am      3 UNK        -0.4232 
     30 C          23.2935   -1.2055   -1.7672 C.2       2 UNK         0.4993 
     31 O          22.1052   -1.3641   -2.0513 O.2       2 UNK        -0.5286 
     32 CA         23.6865   -0.2169   -0.6452 C.3       2 UNK         0.0209 
     33 CB         22.6294   -0.1588    0.4788 C.3       2 UNK        -0.1931 
     34 N          25.0305   -0.4366   -0.0812 N.am      2 UNK        -0.4546 
     35 C          25.4874   -1.5390    0.5363 C.2       1 UNK         0.5154 
     36 O          24.8008   -2.5456    0.7376 O.2       1 UNK        -0.5181 
     37 C          28.3455   -1.2939   -7.6570 C.2       5 UNK         0.5014 
     38 O          29.1301   -1.0349   -8.5700 O.2       5 UNK        -0.5248 
     39 N          28.4341   -0.7687   -6.4249 N.am      6 UNK        -0.4434 
     40 CA         29.4105    0.2425   -6.0076 C.3       6 UNK         0.0363 
     41 CB         29.1998    0.5846   -4.5263 C.3       6 UNK        -0.1936 
     42 C          29.3642    1.5321   -6.8428 C.2       6 UNK         0.5081 
     43 O          30.4164    2.1040   -7.1278 O.2       6 UNK        -0.5248 
     44 N          28.1532    1.9625   -7.2192 N.am      7 UNK        -0.4718 
     45 CA         27.9254    3.1332   -8.0620 C.3       7 UNK         0.0273 
     46 CB         26.5504    3.7424   -7.7423 C.3       7 UNK        -0.1935 
     47 C          28.0318    2.7740   -9.5490 C.2       7 UNK         0.5018 
     48 O          28.6483    3.5274  -10.3014 O.2       7 UNK        -0.5186 
     49 N          27.4491    1.6312   -9.9440 N.am      8 UNK        -0.4240 
     50 CA         27.4044    1.1608  -11.3326 C.3       8 UNK         0.0235 
     51 CB         26.4650   -0.0493  -11.4502 C.3       8 UNK        -0.2000 
     52 C          28.7896    0.8352  -11.9163 C.2       8 UNK         0.4941 
     53 O          29.0673    1.2261  -13.0507 O.2       8 UNK        -0.5273 
     54 N          29.6393    0.1532  -11.1343 N.am      9 UNK        -0.4262 
     55 CA         31.0288   -0.1433  -11.5004 C.3       9 UNK         0.0264 
     56 CB         31.4472   -1.4754  -10.8559 C.3       9 UNK        -0.1955 
     57 C          32.0020    0.9813  -11.1000 C.2       9 UNK         0.5031 
     58 O          33.1693    0.9220  -11.4883 O.2       9 UNK        -0.5390 
     59 N          31.5207    1.9638  -10.3214 N.am      10 UNK        -0.4204 
     60 CA         32.2463    3.1105   -9.7571 C.3       10 UNK         0.0237 
     61 CB         32.7350    4.0567  -10.8744 C.3       10 UNK        -0.1985 
     62 C          33.3690    2.7226   -8.7706 C.2       10 UNK         0.4970 
     63 O          34.2771    3.5227   -8.5379 O.2       10 UNK        -0.4914 
     64 N          33.2863    1.5142   -8.2016 N.am      11 UNK        -0.4285 
     65 CA         34.2118    0.9839   -7.1929 C.3       11 UNK         0.1007 
     66 C          33.9330    1.4778   -5.7438 C.2       11 UNK         0.5703 
     67 N          32.7944    2.0980   -5.4556 N.am      11 UNK        -0.7361 
     68 O          34.7773    1.3077   -4.8675 O.2       11 UNK        -0.4986 
     69 C69        34.3222   -0.5614   -7.2860 C.3       12 UNK        -0.0947 
     70 S70        32.7260   -1.4255   -7.0936 S.3       12 UNK        -0.2240 
     71 C71        32.9193   -2.1464   -5.4333 C.3       12 UNK         0.0194 
     72 H72        27.8556   -5.3529    1.7812 H         1 UNK         0.0906 
     73 H73        29.5896   -5.0536    1.9105 H         1 UNK         0.0906 
     74 H74        28.5701   -4.9751    3.3503 H         1 UNK         0.0906 
     75 H75        26.6948   -3.5919    0.9688 H         1 UNK         0.3140 
     76 H76        26.9825   -0.9619    1.9129 H         1 UNK         0.1085 
     77 H77        27.6776    0.2211   -0.1266 H         1 UNK         0.0836 
     78 H78        28.9435   -0.8187    0.4018 H         1 UNK         0.0836 
     79 H79        30.3307   -1.8498   -1.1657 H         1 UNK         0.0731 
     80 H80        29.4651   -3.3624   -1.0184 H         1 UNK         0.0731 
     81 H81        31.7824   -1.6346   -3.0151 H         1 UNK         0.1312 
     82 H82        31.1662   -3.8988   -6.6054 H         1 UNK         0.1406 
     83 H83        28.3903   -4.2285   -3.3539 H         1 UNK         0.1631 
     84 H84        28.7113   -6.0501   -5.2625 H         1 UNK         0.0717 
     85 H85        29.3564   -5.4693   -6.7734 H         1 UNK         0.0717 
     86 H86        28.4539   -3.9020   -8.2694 H         1 UNK         0.0934 
     87 H87        26.7854   -4.2248   -8.5910 H         1 UNK         0.0934 
     88 H88        26.8868   -1.9772   -9.0081 H         1 UNK         0.0739 
     89 H89        25.4823   -2.5225   -6.6548 H         1 UNK         0.3093 
     90 H90        24.2124    0.7216   -6.0288 H         1 UNK         0.0818 
     91 H91        21.9570   -0.2557   -6.4160 H         1 UNK         0.0819 
     92 H92        22.7551    0.1481   -7.9274 H         1 UNK         0.0819 
     93 H93        22.6630   -1.5270   -7.4135 H         1 UNK         0.0819 
     94 H94        24.3356   -0.5108   -4.2210 H         1 UNK         0.3041 
     95 H95        23.1923   -3.4525   -3.1725 H         1 UNK         0.0784 
     96 H96        25.1645   -4.7478   -3.9130 H         1 UNK         0.0793 
     97 H97        26.2338   -3.4136   -3.5026 H         1 UNK         0.0793 
     98 H98        25.3671   -4.2784   -2.2332 H         1 UNK         0.0793 
     99 H99        25.2384   -1.6588   -2.0966 H         1 UNK         0.3024 
    100 H100       23.7119    0.7659   -1.1191 H         1 UNK         0.1171 
    101 H101       22.9095    0.5579    1.2508 H         1 UNK         0.0786 
    102 H102       21.6585    0.1516    0.0905 H         1 UNK         0.0786 
    103 H103       22.4916   -1.1296    0.9560 H         1 UNK         0.0786 
    104 H104       25.6790    0.3277   -0.2131 H         1 UNK         0.2977 
    105 H105       27.7594   -1.0609   -5.7342 H         1 UNK         0.3127 
    106 H106       30.4031   -0.1902   -6.1194 H         1 UNK         0.0770 
    107 H107       28.2056    0.9909   -4.3373 H         1 UNK         0.0814 
    108 H108       29.9270    1.3242   -4.1886 H         1 UNK         0.0814 
    109 H109       29.3266   -0.2939   -3.9000 H         1 UNK         0.0814 
    110 H110       27.3434    1.3923   -7.0093 H         1 UNK         0.2983 
    111 H111       28.6858    3.8870   -7.8437 H         1 UNK         0.0947 
    112 H112       26.3702    4.6326   -8.3465 H         1 UNK         0.0806 
    113 H113       26.4849    4.0428   -6.6965 H         1 UNK         0.0806 
    114 H114       25.7367    3.0441   -7.9414 H         1 UNK         0.0806 
    115 H115       26.9322    1.0906   -9.2544 H         1 UNK         0.3000 
    116 H116       26.9795    1.9712  -11.9291 H         1 UNK         0.0850 
    117 H117       26.2916   -0.3016  -12.4971 H         1 UNK         0.0810 
    118 H118       25.4929    0.1503  -10.9985 H         1 UNK         0.0810 
    119 H119       26.8852   -0.9335  -10.9743 H         1 UNK         0.0810 
    120 H120       29.3363   -0.1691  -10.2157 H         1 UNK         0.3040 
    121 H121       31.1003   -0.2622  -12.5837 H         1 UNK         0.0766 
    122 H122       31.4438   -1.4154   -9.7682 H         1 UNK         0.0812 
    123 H123       32.4552   -1.7592  -11.1612 H         1 UNK         0.0812 
    124 H124       30.7791   -2.2857  -11.1478 H         1 UNK         0.0812 
    125 H125       30.5409    1.9186  -10.0774 H         1 UNK         0.3205 
    126 H126       31.5126    3.6596   -9.1651 H         1 UNK         0.0754 
    127 H127       33.1339    4.9827  -10.4585 H         1 UNK         0.0769 
    128 H128       31.9197    4.3303  -11.5444 H         1 UNK         0.0769 
    129 H129       33.5251    3.6030  -11.4733 H         1 UNK         0.0769 
    130 H130       32.4816    0.9393   -8.4022 H         1 UNK         0.2981 
    131 H131       35.2037    1.3707   -7.4340 H         1 UNK         0.0541 
    132 H132       32.0693    2.2048   -6.1586 H         1 UNK         0.3459 
    133 H133       32.6378    2.4248   -4.5165 H         1 UNK         0.3459 
    134 H134       35.0443   -0.9436   -6.5621 H         1 UNK         0.0612 
    135 H135       34.7215   -0.8335   -8.2641 H         1 UNK         0.0612 
    136 H136       33.6609   -2.9449   -5.4756 H         1 UNK         0.0624 
    137 H137       33.3199   -1.3824   -4.7653 H         1 UNK         0.0624 
@<TRIPOS>BOND
     1    1    2 1    
     2    1   72 1    
     3    1   73 1    
     4    1   74 1    
     5    2    3 2    
     6    2    4 am   BACKBONE|DICT|INTERRES
     7    4    5 1    
     8    4   75 1    
     9    5    6 1    
    10    5   35 1    
    11    5   76 1    
    12    6    7 1    
    13    6   77 1    
    14    6   78 1    
    15    7    8 1    
    16    8    9 1    
    17    8   79 1    
    18    8   80 1    
    19    9   10 ar   
    20    9   14 ar   
    21   10   11 ar   
    22   10   81 1    
    23   11   12 ar   
    24   11   71 1    
    25   12   13 ar   
    26   12   82 1    
    27   13   14 ar   
    28   13   15 1    
    29   14   83 1    
    30   15   16 1    
    31   15   84 1    
    32   15   85 1    
    33   16   17 1    
    34   17   18 1    
    35   17   86 1    
    36   17   87 1    
    37   18   19 1    
    38   18   37 1    
    39   18   88 1    
    40   19   20 am   BACKBONE|DICT|INTERRES
    41   19   89 1    
    42   20   21 2    
    43   20   22 1    
    44   22   23 1    
    45   22   24 1    
    46   22   90 1    
    47   23   91 1    
    48   23   92 1    
    49   23   93 1    
    50   24   25 am   BACKBONE|DICT|INTERRES
    51   24   94 1    
    52   25   26 2    
    53   25   27 1    
    54   27   28 1    
    55   27   29 1    
    56   27   95 1    
    57   28   96 1    
    58   28   97 1    
    59   28   98 1    
    60   29   30 am   BACKBONE|DICT|INTERRES
    61   29   99 1    
    62   30   31 2    
    63   30   32 1    
    64   32   33 1    
    65   32   34 1    
    66   32  100 1    
    67   33  101 1    
    68   33  102 1    
    69   33  103 1    
    70   34   35 am   BACKBONE|DICT|INTERRES
    71   34  104 1    
    72   35   36 2    
    73   37   38 2    
    74   37   39 am   BACKBONE|DICT|INTERRES
    75   39   40 1    
    76   39  105 1    
    77   40   41 1    
    78   40   42 1    
    79   40  106 1    
    80   41  107 1    
    81   41  108 1    
    82   41  109 1    
    83   42   43 2    
    84   42   44 am   BACKBONE|DICT|INTERRES
    85   44   45 1    
    86   44  110 1    
    87   45   46 1    
    88   45   47 1    
    89   45  111 1    
    90   46  112 1    
    91   46  113 1    
    92   46  114 1    
    93   47   48 2    
    94   47   49 am   BACKBONE|DICT|INTERRES
    95   49   50 1    
    96   49  115 1    
    97   50   51 1    
    98   50   52 1    
    99   50  116 1    
   100   51  117 1    
   101   51  118 1    
   102   51  119 1    
   103   52   53 2    
   104   52   54 am   BACKBONE|DICT|INTERRES
   105   54   55 1    
   106   54  120 1    
   107   55   56 1    
   108   55   57 1    
   109   55  121 1    
   110   56  122 1    
   111   56  123 1    
   112   56  124 1    
   113   57   58 2    
   114   57   59 am   BACKBONE|DICT|INTERRES
   115   59   60 1    
   116   59  125 1    
   117   60   61 1    
   118   60   62 1    
   119   60  126 1    
   120   61  127 1    
   121   61  128 1    
   122   61  129 1    
   123   62   63 2    
   124   62   64 am   BACKBONE|DICT|INTERRES
   125   64   65 1    
   126   64  130 1    
   127   65   66 1    
   128   65   69 1    
   129   65  131 1    
   130   66   67 am   BACKBONE|DICT|INTERRES
   131   66   68 2    
   132   67  132 1    
   133   67  133 1    
   134   69   70 1    
   135   69  134 1    
   136   69  135 1    
   137   70   71 1    
   138   71  136 1    
   139   71  137 1    
@<TRIPOS>SUBSTRUCTURE
     1 UNK         1 GROUP             0       ****    0 ROOT    
