@<TRIPOS>MOLECULE
3R137
137   139    1
SMALL
USER_CHARGES


@<TRIPOS>ATOM
      1 CA         26.8051   -6.2669   -5.4020 C.3       0 UNK        -0.2020 
      2 C          26.8920   -5.4772   -4.1057 C.2       0 UNK         0.4855 
      3 O          25.8647   -5.2125   -3.4805 O.2       0 UNK        -0.5197 
      4 N          28.1089   -5.0906   -3.7012 N.am      1 UNK        -0.4892 
      5 CA         28.3941   -4.3111   -2.4930 C.3       1 UNK         0.0835 
      6 C6         29.9225   -4.2065   -2.2760 C.3       12 UNK        -0.0855 
      7 S7         30.3766   -3.6030   -0.6172 S.3       12 UNK        -0.2931 
      8 C8         32.0229   -2.8888   -0.9433 C.3       12 UNK         0.0378 
      9 C9         31.9590   -1.6575   -1.8393 C.ar      12 UNK        -0.0802 
     10 C10        32.5679   -1.6624   -3.0992 C.ar      12 UNK        -0.0944 
     11 C11        32.5197   -0.5276   -3.9216 C.ar      12 UNK        -0.0787 
     12 C12        31.8610    0.6144   -3.4572 C.ar      12 UNK        -0.0862 
     13 C13        31.2413    0.6323   -2.2040 C.ar      12 UNK        -0.0733 
     14 C14        31.3007   -0.5070   -1.3982 C.ar      12 UNK        -0.0832 
     15 C15        30.5132    1.8755   -1.7013 C.3       12 UNK         0.0240 
     16 S16        29.4567    2.6733   -2.9576 S.3       12 UNK        -0.2522 
     17 C17        28.3239    1.3232   -3.4320 C.3       12 UNK        -0.0967 
     18 CA         28.2265    1.1695   -4.9712 C.3       5 UNK         0.0660 
     19 N          27.7967   -0.1677   -5.3843 N.am      5 UNK        -0.4015 
     20 C          27.7210   -0.6115   -6.6476 C.2       4 UNK         0.4946 
     21 O          28.1840   -0.0029   -7.6115 O.2       4 UNK        -0.5353 
     22 CA         26.9842   -1.9407   -6.8879 C.3       4 UNK         0.0277 
     23 CB         27.9555   -3.1192   -6.9375 C.3       4 UNK        -0.1981 
     24 N          25.9655   -2.2068   -5.8753 N.am      4 UNK        -0.4209 
     25 C          24.7608   -1.6245   -5.8481 C.2       3 UNK         0.4942 
     26 O          24.3626   -0.8359   -6.7046 O.2       3 UNK        -0.5208 
     27 CA         23.8728   -1.9508   -4.6362 C.3       3 UNK         0.0250 
     28 CB         23.0898   -3.2520   -4.8719 C.3       3 UNK        -0.1990 
     29 N          24.6439   -2.0558   -3.3930 N.am      3 UNK        -0.4232 
     30 C          25.2553   -1.0160   -2.8066 C.2       2 UNK         0.4993 
     31 O          25.1966    0.1370   -3.2368 O.2       2 UNK        -0.5286 
     32 CA         26.1195   -1.3153   -1.5666 C.3       2 UNK         0.0209 
     33 CB         25.2622   -1.2745   -0.2922 C.3       2 UNK        -0.1931 
     34 N          26.8471   -2.5905   -1.6280 N.am      2 UNK        -0.4546 
     35 C          27.7294   -2.9224   -2.5817 C.2       1 UNK         0.5154 
     36 O          28.0021   -2.1921   -3.5337 O.2       1 UNK        -0.5181 
     37 C          27.3175    2.2444   -5.5947 C.2       5 UNK         0.5014 
     38 O          27.8177    3.1464   -6.2707 O.2       5 UNK        -0.5248 
     39 N          25.9979    2.0791   -5.4044 N.am      6 UNK        -0.4434 
     40 CA         24.9506    2.9179   -5.9929 C.3       6 UNK         0.0363 
     41 CB         23.5776    2.4776   -5.4621 C.3       6 UNK        -0.1936 
     42 C          24.9688    2.9232   -7.5319 C.2       6 UNK         0.5081 
     43 O          24.7522    3.9757   -8.1327 O.2       6 UNK        -0.5248 
     44 N          25.2969    1.7791   -8.1483 N.am      7 UNK        -0.4718 
     45 CA         25.5179    1.6196   -9.5907 C.3       7 UNK         0.0273 
     46 CB         25.2966    0.1452   -9.9735 C.3       7 UNK        -0.1935 
     47 C          26.8970    2.1452  -10.0542 C.2       7 UNK         0.5018 
     48 O          27.5756    1.4770  -10.8360 O.2       7 UNK        -0.5186 
     49 N          27.2699    3.3435   -9.5824 N.am      8 UNK        -0.4240 
     50 CA         28.4769    4.1095   -9.9102 C.3       8 UNK         0.0235 
     51 CB         28.4163    4.6072  -11.3710 C.3       8 UNK        -0.2000 
     52 C          29.7933    3.3778   -9.5773 C.2       8 UNK         0.4941 
     53 O          30.7029    3.3518  -10.4091 O.2       8 UNK        -0.5273 
     54 N          29.8806    2.8324   -8.3537 N.am      9 UNK        -0.4262 
     55 CA         31.0629    2.1868   -7.7636 C.3       9 UNK         0.0264 
     56 CB         32.1614    3.2306   -7.4695 C.3       9 UNK        -0.1955 
     57 C          31.5802    0.9773   -8.5676 C.2       9 UNK         0.5031 
     58 O          32.7811    0.8739   -8.8255 O.2       9 UNK        -0.5390 
     59 N          30.6662    0.0691   -8.9306 N.am      10 UNK        -0.4204 
     60 CA         30.9742   -1.1686   -9.6535 C.3       10 UNK         0.0237 
     61 CB         29.7120   -1.6386  -10.3959 C.3       10 UNK        -0.1985 
     62 C          31.5319   -2.2873   -8.7507 C.2       10 UNK         0.4970 
     63 O          32.1433   -3.2209   -9.2713 O.2       10 UNK        -0.4914 
     64 N          31.2896   -2.1916   -7.4352 N.am      11 UNK        -0.4285 
     65 CA         31.6671   -3.1210   -6.3487 C.3       11 UNK         0.1007 
     66 C          30.9808   -4.5193   -6.4097 C.2       11 UNK         0.5703 
     67 N          30.8031   -5.1171   -7.5787 N.am      11 UNK        -0.7361 
     68 O          30.5708   -5.0516   -5.3809 O.2       11 UNK        -0.4986 
     69 C69        33.2027   -3.3003   -6.1700 C.3       12 UNK        -0.0947 
     70 S70        34.2453   -1.8367   -5.8059 S.3       12 UNK        -0.2240 
     71 C71        33.1447   -0.4612   -5.3168 C.3       12 UNK         0.0194 
     72 H72        26.0780   -5.8106   -6.0732 H         1 UNK         0.0906 
     73 H73        27.7652   -6.3101   -5.9167 H         1 UNK         0.0906 
     74 H74        26.4829   -7.2873   -5.1963 H         1 UNK         0.0906 
     75 H75        28.9173   -5.2813   -4.2875 H         1 UNK         0.3140 
     76 H76        27.9623   -4.8557   -1.6506 H         1 UNK         0.1085 
     77 H77        30.3842   -5.1880   -2.3970 H         1 UNK         0.0836 
     78 H78        30.3705   -3.5721   -3.0428 H         1 UNK         0.0836 
     79 H79        32.6647   -3.6567   -1.3782 H         1 UNK         0.0731 
     80 H80        32.4804   -2.6109    0.0072 H         1 UNK         0.0731 
     81 H81        33.0757   -2.5563   -3.4287 H         1 UNK         0.1312 
     82 H82        31.8242    1.4975   -4.0805 H         1 UNK         0.1406 
     83 H83        30.8301   -0.5060   -0.4240 H         1 UNK         0.1631 
     84 H84        31.2537    2.5982   -1.3568 H         1 UNK         0.0717 
     85 H85        29.8915    1.6340   -0.8376 H         1 UNK         0.0717 
     86 H86        28.6802    0.3915   -2.9917 H         1 UNK         0.0934 
     87 H87        27.3524    1.5127   -2.9748 H         1 UNK         0.0934 
     88 H88        29.2268    1.2957   -5.3781 H         1 UNK         0.0739 
     89 H89        27.5492   -0.8145   -4.6394 H         1 UNK         0.3093 
     90 H90        26.4935   -1.8779   -7.8596 H         1 UNK         0.0818 
     91 H91        27.4380   -4.0490   -7.1689 H         1 UNK         0.0819 
     92 H92        28.7007   -2.9766   -7.7167 H         1 UNK         0.0819 
     93 H93        28.4746   -3.2439   -5.9881 H         1 UNK         0.0819 
     94 H94        26.2323   -2.7987   -5.1012 H         1 UNK         0.3041 
     95 H95        23.1551   -1.1351   -4.5230 H         1 UNK         0.0784 
     96 H96        22.4917   -3.1869   -5.7820 H         1 UNK         0.0793 
     97 H97        23.7527   -4.1117   -4.9780 H         1 UNK         0.0793 
     98 H98        22.4047   -3.4568   -4.0492 H         1 UNK         0.0793 
     99 H99        24.7662   -2.9802   -2.9998 H         1 UNK         0.3024 
    100 H100       26.8651   -0.5210   -1.4962 H         1 UNK         0.1171 
    101 H101       24.7268   -0.3271   -0.2123 H         1 UNK         0.0786 
    102 H102       25.8765   -1.3724    0.6032 H         1 UNK         0.0786 
    103 H103       24.5179   -2.0717   -0.2789 H         1 UNK         0.0786 
    104 H104       26.6624   -3.2512   -0.8866 H         1 UNK         0.2977 
    105 H105       25.6868    1.3193   -4.8048 H         1 UNK         0.3127 
    106 H106       25.1316    3.9421   -5.6606 H         1 UNK         0.0770 
    107 H107       23.3419    1.4527   -5.7494 H         1 UNK         0.0814 
    108 H108       22.7851    3.1165   -5.8540 H         1 UNK         0.0814 
    109 H109       23.5347    2.5371   -4.3744 H         1 UNK         0.0814 
    110 H110       25.4339    0.9533   -7.5786 H         1 UNK         0.2983 
    111 H111       24.7649    2.2101  -10.1171 H         1 UNK         0.0947 
    112 H112       25.2798    0.0236  -11.0573 H         1 UNK         0.0806 
    113 H113       24.3493   -0.2336   -9.5892 H         1 UNK         0.0806 
    114 H114       26.0958   -0.4887   -9.5922 H         1 UNK         0.0806 
    115 H115       26.6234    3.7938   -8.9428 H         1 UNK         0.3000 
    116 H116       28.4568    4.9901   -9.2663 H         1 UNK         0.0850 
    117 H117       29.2488    5.2764  -11.5916 H         1 UNK         0.0810 
    118 H118       27.4978    5.1612  -11.5642 H         1 UNK         0.0810 
    119 H119       28.4662    3.7813  -12.0815 H         1 UNK         0.0810 
    120 H120       29.0679    2.9002   -7.7442 H         1 UNK         0.3040 
    121 H121       30.7516    1.7851   -6.8033 H         1 UNK         0.0766 
    122 H122       31.7808    4.0422   -6.8495 H         1 UNK         0.0812 
    123 H123       32.5617    3.6662   -8.3856 H         1 UNK         0.0812 
    124 H124       32.9966    2.7791   -6.9326 H         1 UNK         0.0812 
    125 H125       29.6947    0.2098   -8.6505 H         1 UNK         0.3205 
    126 H126       31.7392   -0.9524  -10.4025 H         1 UNK         0.0754 
    127 H127       29.8923   -2.5718  -10.9313 H         1 UNK         0.0769 
    128 H128       29.3938   -0.8996  -11.1320 H         1 UNK         0.0769 
    129 H129       28.8754   -1.8038   -9.7176 H         1 UNK         0.0769 
    130 H130       30.7442   -1.3977   -7.1384 H         1 UNK         0.2981 
    131 H131       31.2815   -2.6576   -5.4408 H         1 UNK         0.0541 
    132 H132       31.1795   -4.6840   -8.4141 H         1 UNK         0.3459 
    133 H133       30.3564   -6.0184   -7.6223 H         1 UNK         0.3459 
    134 H134       33.3934   -4.0050   -5.3582 H         1 UNK         0.0612 
    135 H135       33.6227   -3.7730   -7.0592 H         1 UNK         0.0612 
    136 H136       32.3615   -0.3197   -6.0557 H         1 UNK         0.0624 
    137 H137       33.7505    0.4449   -5.3653 H         1 UNK         0.0624 
@<TRIPOS>BOND
     1    1    2 1    
     2    1   72 1    
     3    1   73 1    
     4    1   74 1    
     5    2    3 2    
     6    2    4 am   BACKBONE|DICT|INTERRES
     7    4    5 1    
     8    4   75 1    
     9    5    6 1    
    10    5   35 1    
    11    5   76 1    
    12    6    7 1    
    13    6   77 1    
    14    6   78 1    
    15    7    8 1    
    16    8    9 1    
    17    8   79 1    
    18    8   80 1    
    19    9   10 ar   
    20    9   14 ar   
    21   10   11 ar   
    22   10   81 1    
    23   11   12 ar   
    24   11   71 1    
    25   12   13 ar   
    26   12   82 1    
    27   13   14 ar   
    28   13   15 1    
    29   14   83 1    
    30   15   16 1    
    31   15   84 1    
    32   15   85 1    
    33   16   17 1    
    34   17   18 1    
    35   17   86 1    
    36   17   87 1    
    37   18   19 1    
    38   18   37 1    
    39   18   88 1    
    40   19   20 am   BACKBONE|DICT|INTERRES
    41   19   89 1    
    42   20   21 2    
    43   20   22 1    
    44   22   23 1    
    45   22   24 1    
    46   22   90 1    
    47   23   91 1    
    48   23   92 1    
    49   23   93 1    
    50   24   25 am   BACKBONE|DICT|INTERRES
    51   24   94 1    
    52   25   26 2    
    53   25   27 1    
    54   27   28 1    
    55   27   29 1    
    56   27   95 1    
    57   28   96 1    
    58   28   97 1    
    59   28   98 1    
    60   29   30 am   BACKBONE|DICT|INTERRES
    61   29   99 1    
    62   30   31 2    
    63   30   32 1    
    64   32   33 1    
    65   32   34 1    
    66   32  100 1    
    67   33  101 1    
    68   33  102 1    
    69   33  103 1    
    70   34   35 am   BACKBONE|DICT|INTERRES
    71   34  104 1    
    72   35   36 2    
    73   37   38 2    
    74   37   39 am   BACKBONE|DICT|INTERRES
    75   39   40 1    
    76   39  105 1    
    77   40   41 1    
    78   40   42 1    
    79   40  106 1    
    80   41  107 1    
    81   41  108 1    
    82   41  109 1    
    83   42   43 2    
    84   42   44 am   BACKBONE|DICT|INTERRES
    85   44   45 1    
    86   44  110 1    
    87   45   46 1    
    88   45   47 1    
    89   45  111 1    
    90   46  112 1    
    91   46  113 1    
    92   46  114 1    
    93   47   48 2    
    94   47   49 am   BACKBONE|DICT|INTERRES
    95   49   50 1    
    96   49  115 1    
    97   50   51 1    
    98   50   52 1    
    99   50  116 1    
   100   51  117 1    
   101   51  118 1    
   102   51  119 1    
   103   52   53 2    
   104   52   54 am   BACKBONE|DICT|INTERRES
   105   54   55 1    
   106   54  120 1    
   107   55   56 1    
   108   55   57 1    
   109   55  121 1    
   110   56  122 1    
   111   56  123 1    
   112   56  124 1    
   113   57   58 2    
   114   57   59 am   BACKBONE|DICT|INTERRES
   115   59   60 1    
   116   59  125 1    
   117   60   61 1    
   118   60   62 1    
   119   60  126 1    
   120   61  127 1    
   121   61  128 1    
   122   61  129 1    
   123   62   63 2    
   124   62   64 am   BACKBONE|DICT|INTERRES
   125   64   65 1    
   126   64  130 1    
   127   65   66 1    
   128   65   69 1    
   129   65  131 1    
   130   66   67 am   BACKBONE|DICT|INTERRES
   131   66   68 2    
   132   67  132 1    
   133   67  133 1    
   134   69   70 1    
   135   69  134 1    
   136   69  135 1    
   137   70   71 1    
   138   71  136 1    
   139   71  137 1    
@<TRIPOS>SUBSTRUCTURE
     1 UNK         1 GROUP             0       ****    0 ROOT    
