@<TRIPOS>MOLECULE
3R137
137   139    1
SMALL
USER_CHARGES


@<TRIPOS>ATOM
      1 CA         26.5022   -6.5772    2.3991 C.3       0 UNK        -0.2020 
      2 C          27.3355   -5.3460    2.0747 C.2       0 UNK         0.4855 
      3 O          28.3326   -5.0876    2.7493 O.2       0 UNK        -0.5197 
      4 N          26.9344   -4.5854    1.0505 N.am      1 UNK        -0.4892 
      5 CA         27.5867   -3.3477    0.6199 C.3       1 UNK         0.0835 
      6 C6         28.8750   -3.6028   -0.2075 C.3       12 UNK        -0.0855 
      7 S7         29.9613   -2.1402   -0.3165 S.3       12 UNK        -0.2931 
      8 C8         29.4877   -1.4049   -1.9150 C.3       12 UNK         0.0378 
      9 C9         30.0268   -2.1887   -3.1040 C.ar      12 UNK        -0.0802 
     10 C10        31.3058   -1.9179   -3.5960 C.ar      12 UNK        -0.0944 
     11 C11        31.8071   -2.6160   -4.6984 C.ar      12 UNK        -0.0787 
     12 C12        31.0249   -3.6097   -5.2972 C.ar      12 UNK        -0.0862 
     13 C13        29.7500   -3.9048   -4.8027 C.ar      12 UNK        -0.0733 
     14 C14        29.2490   -3.1730   -3.7210 C.ar      12 UNK        -0.0832 
     15 C15        28.9467   -5.0607   -5.3891 C.3       12 UNK         0.0240 
     16 S16        28.0511   -4.6212   -6.9121 S.3       12 UNK        -0.2522 
     17 C17        26.7058   -3.5694   -6.2655 C.3       12 UNK        -0.0967 
     18 CA         26.4489   -2.2942   -7.1040 C.3       5 UNK         0.0660 
     19 N          25.3023   -1.5382   -6.5960 N.am      5 UNK        -0.4015 
     20 C          24.6641   -0.5757   -7.2782 C.2       4 UNK         0.4946 
     21 O          24.9365   -0.2608   -8.4351 O.2       4 UNK        -0.5353 
     22 CA         23.5641    0.1982   -6.5320 C.3       4 UNK         0.0277 
     23 CB         22.2246   -0.5511   -6.6128 C.3       4 UNK        -0.1981 
     24 N          23.9027    0.4542   -5.1303 N.am      4 UNK        -0.4209 
     25 C          24.9326    1.2124   -4.7258 C.2       3 UNK         0.4942 
     26 O          25.6620    1.8374   -5.4943 O.2       3 UNK        -0.5208 
     27 CA         25.2300    1.2382   -3.2162 C.3       3 UNK         0.0250 
     28 CB         24.5005    2.4117   -2.5440 C.3       3 UNK        -0.1990 
     29 N          24.8892   -0.0126   -2.5278 N.am      3 UNK        -0.4232 
     30 C          25.4502   -1.2018   -2.7869 C.2       2 UNK         0.4993 
     31 O          26.3138   -1.3786   -3.6500 O.2       2 UNK        -0.5286 
     32 CA         24.9178   -2.4064   -1.9935 C.3       2 UNK         0.0209 
     33 CB         24.3014   -3.4466   -2.9445 C.3       2 UNK        -0.1931 
     34 N          25.9633   -3.0462   -1.1919 N.am      2 UNK        -0.4546 
     35 C          26.5478   -2.4892   -0.1197 C.2       1 UNK         0.5154 
     36 O          26.2528   -1.3761    0.3175 O.2       1 UNK        -0.5181 
     37 C          27.6874   -1.3845   -7.2213 C.2       5 UNK         0.5014 
     38 O          28.3499   -1.4044   -8.2591 O.2       5 UNK        -0.5248 
     39 N          27.9393   -0.5604   -6.1925 N.am      6 UNK        -0.4434 
     40 CA         29.0233    0.4260   -6.1825 C.3       6 UNK         0.0363 
     41 CB         29.0638    1.1471   -4.8268 C.3       6 UNK        -0.1936 
     42 C          28.9291    1.4520   -7.3244 C.2       6 UNK         0.5081 
     43 O          29.9551    1.7832   -7.9213 O.2       6 UNK        -0.5248 
     44 N          27.7022    1.9138   -7.6046 N.am      7 UNK        -0.4718 
     45 CA         27.3724    2.8234   -8.7014 C.3       7 UNK         0.0273 
     46 CB         25.9798    3.4265   -8.4580 C.3       7 UNK        -0.1935 
     47 C          27.4353    2.1555  -10.0857 C.2       7 UNK         0.5018 
     48 O          27.8506    2.8118  -11.0410 O.2       7 UNK        -0.5186 
     49 N          27.0174    0.8832  -10.1818 N.am      8 UNK        -0.4240 
     50 CA         27.0923    0.0774  -11.4068 C.3       8 UNK         0.0235 
     51 CB         26.2483   -1.1977  -11.2512 C.3       8 UNK        -0.2000 
     52 C          28.5370   -0.2761  -11.7984 C.2       8 UNK         0.4941 
     53 O          28.8393   -0.3361  -12.9916 O.2       8 UNK        -0.5273 
     54 N          29.3934   -0.4923  -10.7918 N.am      9 UNK        -0.4262 
     55 CA         30.8436   -0.6137  -10.9162 C.3       9 UNK         0.0264 
     56 CB         31.3590   -1.5129   -9.7720 C.3       9 UNK        -0.1955 
     57 C          31.4801    0.7927  -10.9530 C.2       9 UNK         0.5031 
     58 O          31.0982    1.6145  -11.7885 O.2       9 UNK        -0.5390 
     59 N          32.4429    1.0543  -10.0639 N.am      10 UNK        -0.4204 
     60 CA         33.0878    2.3540   -9.8755 C.3       10 UNK         0.0237 
     61 CB         34.1551    2.5915  -10.9661 C.3       10 UNK        -0.1985 
     62 C          33.6541    2.4384   -8.4505 C.2       10 UNK         0.4970 
     63 O          34.7814    2.9015   -8.2664 O.2       10 UNK        -0.4914 
     64 N          32.8837    1.9457   -7.4723 N.am      11 UNK        -0.4285 
     65 CA         33.3199    1.8104   -6.0716 C.3       11 UNK         0.1007 
     66 C          32.9334    3.0228   -5.1776 C.2       11 UNK         0.5703 
     67 N          32.1617    3.9888   -5.6627 N.am      11 UNK        -0.7361 
     68 O          33.3518    3.0943   -4.0247 O.2       11 UNK        -0.4986 
     69 C69        32.8528    0.4740   -5.4369 C.3       12 UNK        -0.0947 
     70 S70        33.2123   -0.9940   -6.4623 S.3       12 UNK        -0.2240 
     71 C71        33.2078   -2.3204   -5.2167 C.3       12 UNK         0.0194 
     72 H72        27.1157   -7.4748    2.3256 H         1 UNK         0.0906 
     73 H73        26.1157   -6.5113    3.4158 H         1 UNK         0.0906 
     74 H74        25.6561   -6.6893    1.7214 H         1 UNK         0.0906 
     75 H75        26.0757   -4.8147    0.5676 H         1 UNK         0.3140 
     76 H76        27.8644   -2.7938    1.5204 H         1 UNK         0.1085 
     77 H77        29.4692   -4.3782    0.2782 H         1 UNK         0.0836 
     78 H78        28.6483   -4.0024   -1.1938 H         1 UNK         0.0836 
     79 H79        28.4050   -1.3069   -1.9799 H         1 UNK         0.0731 
     80 H80        29.8793   -0.3873   -1.9422 H         1 UNK         0.0731 
     81 H81        31.9118   -1.1606   -3.1184 H         1 UNK         0.1312 
     82 H82        31.4158   -4.1681   -6.1368 H         1 UNK         0.1406 
     83 H83        28.2579   -3.3813   -3.3445 H         1 UNK         0.1631 
     84 H84        28.2390   -5.4482   -4.6544 H         1 UNK         0.0717 
     85 H85        29.6228   -5.8868   -5.6143 H         1 UNK         0.0717 
     86 H86        25.8006   -4.1778   -6.2375 H         1 UNK         0.0934 
     87 H87        26.9137   -3.3039   -5.2314 H         1 UNK         0.0934 
     88 H88        26.1959   -2.6192   -8.1156 H         1 UNK         0.0739 
     89 H89        25.0666   -1.6821   -5.6247 H         1 UNK         0.3093 
     90 H90        23.4469    1.1640   -7.0286 H         1 UNK         0.0818 
     91 H91        21.4183    0.0278   -6.1620 H         1 UNK         0.0819 
     92 H92        21.9453   -0.7365   -7.6511 H         1 UNK         0.0819 
     93 H93        22.2672   -1.5178   -6.1096 H         1 UNK         0.0819 
     94 H94        23.3406   -0.0049   -4.4288 H         1 UNK         0.3041 
     95 H95        26.3043    1.3930   -3.0984 H         1 UNK         0.0784 
     96 H96        24.7577    3.3568   -3.0247 H         1 UNK         0.0793 
     97 H97        23.4167    2.3018   -2.6005 H         1 UNK         0.0793 
     98 H98        24.7758    2.5006   -1.4928 H         1 UNK         0.0793 
     99 H99        24.1977    0.0521   -1.7942 H         1 UNK         0.3024 
    100 H100       24.1340   -2.0644   -1.3134 H         1 UNK         0.1171 
    101 H101       23.5194   -3.0013   -3.5611 H         1 UNK         0.0786 
    102 H102       23.8444   -4.2669   -2.3907 H         1 UNK         0.0786 
    103 H103       25.0454   -3.8733   -3.6180 H         1 UNK         0.0786 
    104 H104       26.2756   -3.9534   -1.5045 H         1 UNK         0.2977 
    105 H105       27.3638   -0.6287   -5.3602 H         1 UNK         0.3127 
    106 H106       29.9501   -0.1335   -6.3171 H         1 UNK         0.0770 
    107 H107       28.1563    1.7213   -4.6457 H         1 UNK         0.0814 
    108 H108       29.8976    1.8481   -4.7785 H         1 UNK         0.0814 
    109 H109       29.1811    0.4415   -4.0087 H         1 UNK         0.0814 
    110 H110       26.9361    1.6415   -6.9946 H         1 UNK         0.2983 
    111 H111       28.1030    3.6355   -8.6950 H         1 UNK         0.0947 
    112 H112       25.7141    4.1301   -9.2481 H         1 UNK         0.0806 
    113 H113       25.9430    3.9693   -7.5132 H         1 UNK         0.0806 
    114 H114       25.2073    2.6570   -8.4302 H         1 UNK         0.0806 
    115 H115       26.6083    0.4369   -9.3669 H         1 UNK         0.3000 
    116 H116       26.6666    0.6674  -12.2213 H         1 UNK         0.0850 
    117 H117       26.2852   -1.8036  -12.1574 H         1 UNK         0.0810 
    118 H118       25.2012   -0.9596  -11.0639 H         1 UNK         0.0810 
    119 H119       26.6044   -1.8181  -10.4285 H         1 UNK         0.0810 
    120 H120       29.0230   -0.5021   -9.8447 H         1 UNK         0.3040 
    121 H121       31.0841   -1.1016  -11.8628 H         1 UNK         0.0766 
    122 H122       32.4332   -1.6866   -9.8468 H         1 UNK         0.0812 
    123 H123       30.8794   -2.4916   -9.8019 H         1 UNK         0.0812 
    124 H124       31.1494   -1.0841   -8.7905 H         1 UNK         0.0812 
    125 H125       32.7065    0.3327   -9.4061 H         1 UNK         0.3205 
    126 H126       32.3299    3.1366   -9.9530 H         1 UNK         0.0754 
    127 H127       34.6274    3.5676  -10.8482 H         1 UNK         0.0769 
    128 H128       33.7195    2.5674  -11.9649 H         1 UNK         0.0769 
    129 H129       34.9425    1.8379  -10.9264 H         1 UNK         0.0769 
    130 H130       31.9243    1.6798   -7.6766 H         1 UNK         0.2981 
    131 H131       34.4110    1.7832   -6.0544 H         1 UNK         0.0541 
    132 H132       31.8134    3.9386   -6.6065 H         1 UNK         0.3459 
    133 H133       31.9252    4.7732   -5.0763 H         1 UNK         0.3459 
    134 H134       31.7853    0.4961   -5.2342 H         1 UNK         0.0612 
    135 H135       33.3394    0.3417   -4.4691 H         1 UNK         0.0612 
    136 H136       33.6329   -3.2191   -5.6657 H         1 UNK         0.0624 
    137 H137       33.8705   -2.0524   -4.3924 H         1 UNK         0.0624 
@<TRIPOS>BOND
     1    1    2 1    
     2    1   72 1    
     3    1   73 1    
     4    1   74 1    
     5    2    3 2    
     6    2    4 am   BACKBONE|DICT|INTERRES
     7    4    5 1    
     8    4   75 1    
     9    5    6 1    
    10    5   35 1    
    11    5   76 1    
    12    6    7 1    
    13    6   77 1    
    14    6   78 1    
    15    7    8 1    
    16    8    9 1    
    17    8   79 1    
    18    8   80 1    
    19    9   10 ar   
    20    9   14 ar   
    21   10   11 ar   
    22   10   81 1    
    23   11   12 ar   
    24   11   71 1    
    25   12   13 ar   
    26   12   82 1    
    27   13   14 ar   
    28   13   15 1    
    29   14   83 1    
    30   15   16 1    
    31   15   84 1    
    32   15   85 1    
    33   16   17 1    
    34   17   18 1    
    35   17   86 1    
    36   17   87 1    
    37   18   19 1    
    38   18   37 1    
    39   18   88 1    
    40   19   20 am   BACKBONE|DICT|INTERRES
    41   19   89 1    
    42   20   21 2    
    43   20   22 1    
    44   22   23 1    
    45   22   24 1    
    46   22   90 1    
    47   23   91 1    
    48   23   92 1    
    49   23   93 1    
    50   24   25 am   BACKBONE|DICT|INTERRES
    51   24   94 1    
    52   25   26 2    
    53   25   27 1    
    54   27   28 1    
    55   27   29 1    
    56   27   95 1    
    57   28   96 1    
    58   28   97 1    
    59   28   98 1    
    60   29   30 am   BACKBONE|DICT|INTERRES
    61   29   99 1    
    62   30   31 2    
    63   30   32 1    
    64   32   33 1    
    65   32   34 1    
    66   32  100 1    
    67   33  101 1    
    68   33  102 1    
    69   33  103 1    
    70   34   35 am   BACKBONE|DICT|INTERRES
    71   34  104 1    
    72   35   36 2    
    73   37   38 2    
    74   37   39 am   BACKBONE|DICT|INTERRES
    75   39   40 1    
    76   39  105 1    
    77   40   41 1    
    78   40   42 1    
    79   40  106 1    
    80   41  107 1    
    81   41  108 1    
    82   41  109 1    
    83   42   43 2    
    84   42   44 am   BACKBONE|DICT|INTERRES
    85   44   45 1    
    86   44  110 1    
    87   45   46 1    
    88   45   47 1    
    89   45  111 1    
    90   46  112 1    
    91   46  113 1    
    92   46  114 1    
    93   47   48 2    
    94   47   49 am   BACKBONE|DICT|INTERRES
    95   49   50 1    
    96   49  115 1    
    97   50   51 1    
    98   50   52 1    
    99   50  116 1    
   100   51  117 1    
   101   51  118 1    
   102   51  119 1    
   103   52   53 2    
   104   52   54 am   BACKBONE|DICT|INTERRES
   105   54   55 1    
   106   54  120 1    
   107   55   56 1    
   108   55   57 1    
   109   55  121 1    
   110   56  122 1    
   111   56  123 1    
   112   56  124 1    
   113   57   58 2    
   114   57   59 am   BACKBONE|DICT|INTERRES
   115   59   60 1    
   116   59  125 1    
   117   60   61 1    
   118   60   62 1    
   119   60  126 1    
   120   61  127 1    
   121   61  128 1    
   122   61  129 1    
   123   62   63 2    
   124   62   64 am   BACKBONE|DICT|INTERRES
   125   64   65 1    
   126   64  130 1    
   127   65   66 1    
   128   65   69 1    
   129   65  131 1    
   130   66   67 am   BACKBONE|DICT|INTERRES
   131   66   68 2    
   132   67  132 1    
   133   67  133 1    
   134   69   70 1    
   135   69  134 1    
   136   69  135 1    
   137   70   71 1    
   138   71  136 1    
   139   71  137 1    
@<TRIPOS>SUBSTRUCTURE
     1 UNK         1 GROUP             0       ****    0 ROOT    
