@<TRIPOS>MOLECULE
3R137
137   139    1
SMALL
USER_CHARGES


@<TRIPOS>ATOM
      1 CA         24.7170   -5.7179   -5.0370 C.3       0 UNK        -0.2020 
      2 C          25.1629   -5.0485   -3.7463 C.2       0 UNK         0.4855 
      3 O          24.3445   -4.4340   -3.0615 O.2       0 UNK        -0.5197 
      4 N          26.4573   -5.1476   -3.4144 N.am      1 UNK        -0.4892 
      5 CA         27.0777   -4.5372   -2.2331 C.3       1 UNK         0.0835 
      6 C6         28.5514   -4.9837   -2.0880 C.3       12 UNK        -0.0855 
      7 S7         29.2426   -4.5786   -0.4479 S.3       12 UNK        -0.2931 
      8 C8         31.0111   -4.3695   -0.8328 C.3       12 UNK         0.0378 
      9 C9         31.2773   -3.1790   -1.7454 C.ar      12 UNK        -0.0802 
     10 C10        31.7497   -3.3798   -3.0450 C.ar      12 UNK        -0.0944 
     11 C11        32.0216   -2.2921   -3.8794 C.ar      12 UNK        -0.0787 
     12 C12        31.8218   -0.9922   -3.4048 C.ar      12 UNK        -0.0862 
     13 C13        31.3451   -0.7760   -2.1055 C.ar      12 UNK        -0.0733 
     14 C14        31.0780   -1.8755   -1.2826 C.ar      12 UNK        -0.0832 
     15 C15        31.1384    0.6341   -1.5573 C.3       12 UNK         0.0240 
     16 S16        30.3392    1.7880   -2.7229 S.3       12 UNK        -0.2522 
     17 C17        28.7871    0.9216   -3.1327 C.3       12 UNK        -0.0967 
     18 CA         28.5499    0.8931   -4.6638 C.3       5 UNK         0.0660 
     19 N          27.8269   -0.3059   -5.0925 N.am      5 UNK        -0.4015 
     20 C          27.5571   -0.6295   -6.3649 C.2       4 UNK         0.4946 
     21 O          27.9666    0.0081   -7.3357 O.2       4 UNK        -0.5353 
     22 CA         26.6200   -1.8264   -6.5915 C.3       4 UNK         0.0277 
     23 CB         27.3927   -3.1549   -6.5680 C.3       4 UNK        -0.1981 
     24 N          25.5374   -1.8546   -5.6042 N.am      4 UNK        -0.4209 
     25 C          24.5258   -0.9738   -5.5758 C.2       3 UNK         0.4942 
     26 O          24.3639   -0.0943   -6.4191 O.2       3 UNK        -0.5208 
     27 CA         23.5645   -1.0454   -4.3793 C.3       3 UNK         0.0250 
     28 CB         22.4465   -2.0681   -4.6340 C.3       3 UNK        -0.1990 
     29 N          24.2609   -1.3527   -3.1274 N.am      3 UNK        -0.4232 
     30 C          25.0973   -0.4975   -2.5175 C.2       2 UNK         0.4993 
     31 O          25.3230    0.6407   -2.9281 O.2       2 UNK        -0.5286 
     32 CA         25.8531   -1.0043   -1.2755 C.3       2 UNK         0.0209 
     33 CB         25.0480   -0.7127    0.0002 C.3       2 UNK        -0.1931 
     34 N          26.1876   -2.4309   -1.3286 N.am      2 UNK        -0.4546 
     35 C          26.9364   -3.0018   -2.2822 C.2       1 UNK         0.5154 
     36 O          27.4490   -2.3745   -3.2108 O.2       1 UNK        -0.5181 
     37 C          27.8677    2.1911   -5.1497 C.2       5 UNK         0.5014 
     38 O          28.5495    3.0895   -5.6413 O.2       5 UNK        -0.5248 
     39 N          26.5350    2.2572   -5.0256 N.am      6 UNK        -0.4434 
     40 CA         25.7193    3.3658   -5.5182 C.3       6 UNK         0.0363 
     41 CB         24.3088    3.2746   -4.9130 C.3       6 UNK        -0.1936 
     42 C          25.6522    3.4261   -7.0546 C.2       6 UNK         0.5081 
     43 O          25.8233    4.5060   -7.6213 O.2       6 UNK        -0.5248 
     44 N          25.3696    2.2848   -7.6980 N.am      7 UNK        -0.4718 
     45 CA         25.1162    2.2015   -9.1378 C.3       7 UNK         0.0273 
     46 CB         24.3295    0.9180   -9.4507 C.3       7 UNK        -0.1935 
     47 C          26.3827    2.2718  -10.0034 C.2       7 UNK         0.5018 
     48 O          26.3802    2.9931  -11.0023 O.2       7 UNK        -0.5186 
     49 N          27.4133    1.4966   -9.6427 N.am      8 UNK        -0.4240 
     50 CA         28.6144    1.2931  -10.4556 C.3       8 UNK         0.0235 
     51 CB         28.8021   -0.2111  -10.7142 C.3       8 UNK        -0.2000 
     52 C          29.8725    1.8814   -9.8088 C.2       8 UNK         0.4941 
     53 O          30.7322    2.3736  -10.5401 O.2       8 UNK        -0.5273 
     54 N          29.9911    1.7968   -8.4744 N.am      9 UNK        -0.4262 
     55 CA         31.0894    2.2897   -7.6183 C.3       9 UNK         0.0264 
     56 CB         31.2365    3.8203   -7.7223 C.3       9 UNK        -0.1955 
     57 C          32.4533    1.5953   -7.8089 C.2       9 UNK         0.5031 
     58 O          33.1650    1.3973   -6.8240 O.2       9 UNK        -0.5390 
     59 N          32.7796    1.2266   -9.0520 N.am      10 UNK        -0.4204 
     60 CA         33.9634    0.4858   -9.4895 C.3       10 UNK         0.0237 
     61 CB         33.8814    0.2285  -11.0041 C.3       10 UNK        -0.1985 
     62 C          34.2842   -0.8196   -8.7256 C.2       10 UNK         0.4970 
     63 O          35.4501   -1.0001   -8.3782 O.2       10 UNK        -0.4914 
     64 N          33.3461   -1.7373   -8.4448 N.am      11 UNK        -0.4285 
     65 CA         31.9197   -1.8054   -8.8070 C.3       11 UNK         0.1007 
     66 C          31.5864   -2.9832   -9.7700 C.2       11 UNK         0.5703 
     67 N          32.5671   -3.7089  -10.2955 N.am      11 UNK        -0.7361 
     68 O          30.4211   -3.2266  -10.0711 O.2       11 UNK        -0.4986 
     69 C69        31.0241   -1.7835   -7.5347 C.3       12 UNK        -0.0947 
     70 S70        31.3013   -3.1914   -6.4043 S.3       12 UNK        -0.2240 
     71 C71        32.5714   -2.5323   -5.2762 C.3       12 UNK         0.0194 
     72 H72        23.9091   -6.4204   -4.8340 H         1 UNK         0.0906 
     73 H73        24.3499   -4.9713   -5.7407 H         1 UNK         0.0906 
     74 H74        25.5291   -6.2652   -5.5153 H         1 UNK         0.0906 
     75 H75        27.0861   -5.6483   -4.0261 H         1 UNK         0.3140 
     76 H76        26.5279   -4.9090   -1.3655 H         1 UNK         0.1085 
     77 H77        29.1609   -4.5470   -2.8810 H         1 UNK         0.0836 
     78 H78        28.6287   -6.0652   -2.2109 H         1 UNK         0.0836 
     79 H79        31.3903   -5.2924   -1.2748 H         1 UNK         0.0731 
     80 H80        31.5599   -4.2316    0.0999 H         1 UNK         0.0731 
     81 H81        31.9126   -4.3845   -3.4111 H         1 UNK         0.1312 
     82 H82        32.0432   -0.1486   -4.0447 H         1 UNK         0.1406 
     83 H83        30.7166   -1.7223   -0.2745 H         1 UNK         0.1631 
     84 H84        32.1091    1.0424   -1.2739 H         1 UNK         0.0717 
     85 H85        30.5383    0.6064   -0.6463 H         1 UNK         0.0717 
     86 H86        28.8417   -0.0958   -2.7446 H         1 UNK         0.0934 
     87 H87        27.9604    1.3917   -2.5966 H         1 UNK         0.0934 
     88 H88        29.5194    0.8245   -5.1596 H         1 UNK         0.0739 
     89 H89        27.5318   -0.9494   -4.3610 H         1 UNK         0.3093 
     90 H90        26.1723   -1.7144   -7.5814 H         1 UNK         0.0818 
     91 H91        28.1290   -3.1880   -7.3714 H         1 UNK         0.0819 
     92 H92        27.9308   -3.3023   -5.6312 H         1 UNK         0.0819 
     93 H93        26.7267   -4.0051   -6.7124 H         1 UNK         0.0819 
     94 H94        25.6401   -2.4968   -4.8319 H         1 UNK         0.3041 
     95 H95        23.0997   -0.0628   -4.2713 H         1 UNK         0.0784 
     96 H96        21.8757   -1.8028   -5.5250 H         1 UNK         0.0793 
     97 H97        22.8380   -3.0731   -4.7889 H         1 UNK         0.0793 
     98 H98        21.7454   -2.1060   -3.8001 H         1 UNK         0.0793 
     99 H99        24.1606   -2.2940   -2.7626 H         1 UNK         0.3024 
    100 H100       26.7921   -0.4501   -1.2201 H         1 UNK         0.1171 
    101 H101       25.6123   -0.9759    0.8951 H         1 UNK         0.0786 
    102 H102       24.8052    0.3486    0.0736 H         1 UNK         0.0786 
    103 H103       24.1072   -1.2644    0.0203 H         1 UNK         0.0786 
    104 H104       25.7797   -3.0172   -0.6144 H         1 UNK         0.2977 
    105 H105       26.0504    1.5146   -4.5287 H         1 UNK         0.3127 
    106 H106       26.1732    4.2963   -5.1700 H         1 UNK         0.0770 
    107 H107       23.8037    2.3514   -5.1989 H         1 UNK         0.0814 
    108 H108       23.6860    4.1051   -5.2476 H         1 UNK         0.0814 
    109 H109       24.3424    3.3115   -3.8239 H         1 UNK         0.0814 
    110 H110       25.1935    1.4415   -7.1561 H         1 UNK         0.2983 
    111 H111       24.4852    3.0485   -9.4176 H         1 UNK         0.0947 
    112 H112       24.8878    0.0233   -9.1720 H         1 UNK         0.0806 
    113 H113       24.1053    0.8451  -10.5158 H         1 UNK         0.0806 
    114 H114       23.3788    0.8967   -8.9175 H         1 UNK         0.0806 
    115 H115       27.3600    0.9650   -8.7758 H         1 UNK         0.3000 
    116 H116       28.5028    1.7796  -11.4271 H         1 UNK         0.0850 
    117 H117       29.7002   -0.4010  -11.3037 H         1 UNK         0.0810 
    118 H118       27.9593   -0.6232  -11.2691 H         1 UNK         0.0810 
    119 H119       28.8942   -0.7755   -9.7862 H         1 UNK         0.0810 
    120 H120       29.2502    1.3067   -7.9788 H         1 UNK         0.3040 
    121 H121       30.7870    2.0663   -6.5964 H         1 UNK         0.0766 
    122 H122       30.2933    4.3218   -7.5050 H         1 UNK         0.0812 
    123 H123       31.5649    4.1357   -8.7129 H         1 UNK         0.0812 
    124 H124       31.9708    4.1887   -7.0049 H         1 UNK         0.0812 
    125 H125       32.1322    1.5229   -9.7806 H         1 UNK         0.3205 
    126 H126       34.8085    1.1561   -9.3205 H         1 UNK         0.0754 
    127 H127       34.7671   -0.3000  -11.3600 H         1 UNK         0.0769 
    128 H128       33.8210    1.1641  -11.5608 H         1 UNK         0.0769 
    129 H129       33.0135   -0.3740  -11.2725 H         1 UNK         0.0769 
    130 H130       33.6562   -2.5538   -7.9400 H         1 UNK         0.2981 
    131 H131       31.6415   -0.9398   -9.3998 H         1 UNK         0.0541 
    132 H132       32.3358   -4.4618  -10.9242 H         1 UNK         0.3459 
    133 H133       33.5313   -3.5085  -10.0841 H         1 UNK         0.3459 
    134 H134       31.1666   -0.8555   -6.9816 H         1 UNK         0.0612 
    135 H135       29.9731   -1.7840   -7.8208 H         1 UNK         0.0612 
    136 H136       33.3895   -3.2515   -5.2178 H         1 UNK         0.0624 
    137 H137       33.0055   -1.6159   -5.6786 H         1 UNK         0.0624 
@<TRIPOS>BOND
     1    1    2 1    
     2    1   72 1    
     3    1   73 1    
     4    1   74 1    
     5    2    3 2    
     6    2    4 am   BACKBONE|DICT|INTERRES
     7    4    5 1    
     8    4   75 1    
     9    5    6 1    
    10    5   35 1    
    11    5   76 1    
    12    6    7 1    
    13    6   77 1    
    14    6   78 1    
    15    7    8 1    
    16    8    9 1    
    17    8   79 1    
    18    8   80 1    
    19    9   10 ar   
    20    9   14 ar   
    21   10   11 ar   
    22   10   81 1    
    23   11   12 ar   
    24   11   71 1    
    25   12   13 ar   
    26   12   82 1    
    27   13   14 ar   
    28   13   15 1    
    29   14   83 1    
    30   15   16 1    
    31   15   84 1    
    32   15   85 1    
    33   16   17 1    
    34   17   18 1    
    35   17   86 1    
    36   17   87 1    
    37   18   19 1    
    38   18   37 1    
    39   18   88 1    
    40   19   20 am   BACKBONE|DICT|INTERRES
    41   19   89 1    
    42   20   21 2    
    43   20   22 1    
    44   22   23 1    
    45   22   24 1    
    46   22   90 1    
    47   23   91 1    
    48   23   92 1    
    49   23   93 1    
    50   24   25 am   BACKBONE|DICT|INTERRES
    51   24   94 1    
    52   25   26 2    
    53   25   27 1    
    54   27   28 1    
    55   27   29 1    
    56   27   95 1    
    57   28   96 1    
    58   28   97 1    
    59   28   98 1    
    60   29   30 am   BACKBONE|DICT|INTERRES
    61   29   99 1    
    62   30   31 2    
    63   30   32 1    
    64   32   33 1    
    65   32   34 1    
    66   32  100 1    
    67   33  101 1    
    68   33  102 1    
    69   33  103 1    
    70   34   35 am   BACKBONE|DICT|INTERRES
    71   34  104 1    
    72   35   36 2    
    73   37   38 2    
    74   37   39 am   BACKBONE|DICT|INTERRES
    75   39   40 1    
    76   39  105 1    
    77   40   41 1    
    78   40   42 1    
    79   40  106 1    
    80   41  107 1    
    81   41  108 1    
    82   41  109 1    
    83   42   43 2    
    84   42   44 am   BACKBONE|DICT|INTERRES
    85   44   45 1    
    86   44  110 1    
    87   45   46 1    
    88   45   47 1    
    89   45  111 1    
    90   46  112 1    
    91   46  113 1    
    92   46  114 1    
    93   47   48 2    
    94   47   49 am   BACKBONE|DICT|INTERRES
    95   49   50 1    
    96   49  115 1    
    97   50   51 1    
    98   50   52 1    
    99   50  116 1    
   100   51  117 1    
   101   51  118 1    
   102   51  119 1    
   103   52   53 2    
   104   52   54 am   BACKBONE|DICT|INTERRES
   105   54   55 1    
   106   54  120 1    
   107   55   56 1    
   108   55   57 1    
   109   55  121 1    
   110   56  122 1    
   111   56  123 1    
   112   56  124 1    
   113   57   58 2    
   114   57   59 am   BACKBONE|DICT|INTERRES
   115   59   60 1    
   116   59  125 1    
   117   60   61 1    
   118   60   62 1    
   119   60  126 1    
   120   61  127 1    
   121   61  128 1    
   122   61  129 1    
   123   62   63 2    
   124   62   64 am   BACKBONE|DICT|INTERRES
   125   64   65 1    
   126   64  130 1    
   127   65   66 1    
   128   65   69 1    
   129   65  131 1    
   130   66   67 am   BACKBONE|DICT|INTERRES
   131   66   68 2    
   132   67  132 1    
   133   67  133 1    
   134   69   70 1    
   135   69  134 1    
   136   69  135 1    
   137   70   71 1    
   138   71  136 1    
   139   71  137 1    
@<TRIPOS>SUBSTRUCTURE
     1 UNK         1 GROUP             0       ****    0 ROOT    
