@<TRIPOS>MOLECULE
3R137
137   139    1
SMALL
USER_CHARGES


@<TRIPOS>ATOM
      1 CA         27.9684   -5.2192    0.6898 C.3       0 UNK        -0.2020 
      2 C          27.5411   -3.9958   -0.1057 C.2       0 UNK         0.4855 
      3 O          27.6278   -4.0086   -1.3322 O.2       0 UNK        -0.5197 
      4 N          27.0644   -2.9489    0.5818 N.am      1 UNK        -0.4892 
      5 CA         26.6463   -1.6263    0.0758 C.3       1 UNK         0.0835 
      6 C6         27.7654   -0.8447   -0.6659 C.3       12 UNK        -0.0855 
      7 S7         29.2666   -0.6410    0.3564 S.3       12 UNK        -0.2931 
      8 C8         30.4243    0.1208   -0.8355 C.3       12 UNK         0.0378 
      9 C9         31.1448   -0.8366   -1.7896 C.ar      12 UNK        -0.0802 
     10 C10        32.2367   -0.3469   -2.5158 C.ar      12 UNK        -0.0944 
     11 C11        32.9188   -1.1580   -3.4284 C.ar      12 UNK        -0.0787 
     12 C12        32.4995   -2.4778   -3.6178 C.ar      12 UNK        -0.0862 
     13 C13        31.3980   -2.9785   -2.9187 C.ar      12 UNK        -0.0733 
     14 C14        30.7410   -2.1636   -1.9929 C.ar      12 UNK        -0.0832 
     15 C15        30.9055   -4.3948   -3.1773 C.3       12 UNK         0.0240 
     16 S16        30.1188   -4.5597   -4.8144 S.3       12 UNK        -0.2522 
     17 C17        28.5645   -3.6208   -4.6163 C.3       12 UNK        -0.0967 
     18 CA         28.3153   -2.6225   -5.7871 C.3       5 UNK         0.0660 
     19 N          26.9499   -2.7474   -6.3003 N.am      5 UNK        -0.4015 
     20 C          26.6115   -3.1060   -7.5463 C.2       4 UNK         0.4946 
     21 O          27.4279   -3.3964   -8.4204 O.2       4 UNK        -0.5353 
     22 CA         25.1099   -3.1657   -7.8958 C.3       4 UNK         0.0277 
     23 CB         24.6457   -4.6271   -8.0152 C.3       4 UNK        -0.1981 
     24 N          24.2386   -2.4692   -6.9454 N.am      4 UNK        -0.4209 
     25 C          24.2052   -1.1420   -6.7643 C.2       3 UNK         0.4942 
     26 O          24.8885   -0.3476   -7.4085 O.2       3 UNK        -0.5208 
     27 CA         23.3122   -0.6213   -5.6231 C.3       3 UNK         0.0250 
     28 CB         21.8873   -0.3571   -6.1350 C.3       3 UNK        -0.1990 
     29 N          23.2568   -1.4987   -4.4439 N.am      3 UNK        -0.4232 
     30 C          24.3208   -1.9267   -3.7486 C.2       2 UNK         0.4993 
     31 O          25.4875   -1.6968   -4.0738 O.2       2 UNK        -0.5286 
     32 CA         24.0411   -2.8116   -2.5246 C.3       2 UNK         0.0209 
     33 CB         23.9130   -4.2834   -2.9506 C.3       2 UNK        -0.1931 
     34 N          25.1260   -2.6987   -1.5500 N.am      2 UNK        -0.4546 
     35 C          25.3477   -1.6406   -0.7623 C.2       1 UNK         0.5154 
     36 O          24.5643   -0.6936   -0.6699 O.2       1 UNK        -0.5181 
     37 C          28.6223   -1.1588   -5.3976 C.2       5 UNK         0.5014 
     38 O          29.6595   -0.9055   -4.7922 O.2       5 UNK        -0.5248 
     39 N          27.7409   -0.2048   -5.7331 N.am      6 UNK        -0.4434 
     40 CA         27.9307    1.2163   -5.4402 C.3       6 UNK         0.0363 
     41 CB         26.5886    1.9433   -5.6238 C.3       6 UNK        -0.1936 
     42 C          29.0093    1.8502   -6.3333 C.2       6 UNK         0.5081 
     43 O          29.3386    1.3115   -7.3934 O.2       6 UNK        -0.5248 
     44 N          29.4815    3.0399   -5.9367 N.am      7 UNK        -0.4718 
     45 CA         30.3937    3.8741   -6.7303 C.3       7 UNK         0.0273 
     46 CB         30.8237    5.0976   -5.9066 C.3       7 UNK        -0.1935 
     47 C          29.7885    4.3105   -8.0781 C.2       7 UNK         0.5018 
     48 O          30.5141    4.3986   -9.0677 O.2       7 UNK        -0.5186 
     49 N          28.4596    4.4919   -8.1120 N.am      8 UNK        -0.4240 
     50 CA         27.6671    4.7294   -9.3237 C.3       8 UNK         0.0235 
     51 CB         26.2263    5.0822   -8.9199 C.3       8 UNK        -0.2000 
     52 C          27.6720    3.5446  -10.3111 C.2       8 UNK         0.4941 
     53 O          27.4795    3.7622  -11.5074 O.2       8 UNK        -0.5273 
     54 N          27.9141    2.3277   -9.8041 N.am      9 UNK        -0.4262 
     55 CA         28.1001    1.1010  -10.5811 C.3       9 UNK         0.0264 
     56 CB         27.3284   -0.0394   -9.8905 C.3       9 UNK        -0.1955 
     57 C          29.5928    0.7460  -10.7338 C.2       9 UNK         0.5031 
     58 O          29.8990   -0.3627  -11.1754 O.2       9 UNK        -0.5390 
     59 N          30.4958    1.6618  -10.3416 N.am      10 UNK        -0.4204 
     60 CA         31.9581    1.5346  -10.3338 C.3       10 UNK         0.0237 
     61 CB         32.5043    1.5631  -11.7773 C.3       10 UNK        -0.1985 
     62 C          32.4666    0.3247   -9.5232 C.2       10 UNK         0.4970 
     63 O          33.4546   -0.2964   -9.9198 O.2       10 UNK        -0.4914 
     64 N          31.7719    0.0008   -8.4219 N.am      11 UNK        -0.4285 
     65 CA         31.9960   -1.1911   -7.5847 C.3       11 UNK         0.1007 
     66 C          31.6669   -2.5424   -8.2943 C.2       11 UNK         0.5703 
     67 N          30.9523   -2.5562   -9.4145 N.am      11 UNK        -0.7361 
     68 O          32.0432   -3.6076   -7.8123 O.2       11 UNK        -0.4986 
     69 C69        33.3846   -1.1976   -6.8781 C.3       12 UNK        -0.0947 
     70 S70        33.6135    0.2195   -5.7493 S.3       12 UNK        -0.2240 
     71 C71        34.1097   -0.6040   -4.1995 C.3       12 UNK         0.0194 
     72 H72        27.8384   -5.0763    1.7623 H         1 UNK         0.0906 
     73 H73        27.3812   -6.0861    0.3882 H         1 UNK         0.0906 
     74 H74        29.0193   -5.4374    0.5017 H         1 UNK         0.0906 
     75 H75        26.9975   -3.0378    1.5867 H         1 UNK         0.3140 
     76 H76        26.4007   -1.0519    0.9709 H         1 UNK         0.1085 
     77 H77        27.4124    0.1531   -0.9345 H         1 UNK         0.0836 
     78 H78        28.0177   -1.3318   -1.6091 H         1 UNK         0.0836 
     79 H79        31.1742    0.6636   -0.2579 H         1 UNK         0.0731 
     80 H80        29.8909    0.8692   -1.4234 H         1 UNK         0.0731 
     81 H81        32.5536    0.6780   -2.3783 H         1 UNK         0.1312 
     82 H82        33.0110   -3.1140   -4.3260 H         1 UNK         0.1406 
     83 H83        29.8968   -2.5695   -1.4572 H         1 UNK         0.1631 
     84 H84        30.2014   -4.7137   -2.4068 H         1 UNK         0.0717 
     85 H85        31.7507   -5.0822   -3.1228 H         1 UNK         0.0717 
     86 H86        27.7643   -4.3606   -4.5582 H         1 UNK         0.0934 
     87 H87        28.5465   -3.1197   -3.6470 H         1 UNK         0.0934 
     88 H88        29.0146   -2.8464   -6.5950 H         1 UNK         0.0739 
     89 H89        26.2261   -2.4880   -5.6336 H         1 UNK         0.3093 
     90 H90        24.9902   -2.6872   -8.8704 H         1 UNK         0.0818 
     91 H91        24.7294   -5.1565   -7.0651 H         1 UNK         0.0819 
     92 H92        23.6091   -4.6899   -8.3467 H         1 UNK         0.0819 
     93 H93        25.2490   -5.1703   -8.7442 H         1 UNK         0.0819 
     94 H94        23.6472   -3.0444   -6.3634 H         1 UNK         0.3041 
     95 H95        23.7339    0.3301   -5.2942 H         1 UNK         0.0784 
     96 H96        21.9005    0.3087   -6.9994 H         1 UNK         0.0793 
     97 H97        21.2727    0.1208   -5.3718 H         1 UNK         0.0793 
     98 H98        21.3891   -1.2780   -6.4407 H         1 UNK         0.0793 
     99 H99        22.3340   -1.7532   -4.1208 H         1 UNK         0.3024 
    100 H100       23.1102   -2.4871   -2.0539 H         1 UNK         0.1171 
    101 H101       23.7096   -4.9266   -2.0941 H         1 UNK         0.0786 
    102 H102       24.8242   -4.6448   -3.4301 H         1 UNK         0.0786 
    103 H103       23.0940   -4.4202   -3.6579 H         1 UNK         0.0786 
    104 H104       25.8808   -3.3770   -1.6148 H         1 UNK         0.2977 
    105 H105       26.9184   -0.4536   -6.2658 H         1 UNK         0.3127 
    106 H106       28.2441    1.3140   -4.3983 H         1 UNK         0.0770 
    107 H107       26.2396    1.8939   -6.6563 H         1 UNK         0.0814 
    108 H108       26.6658    2.9971   -5.3545 H         1 UNK         0.0814 
    109 H109       25.8181    1.5082   -4.9876 H         1 UNK         0.0814 
    110 H110       29.1703    3.4203   -5.0538 H         1 UNK         0.2983 
    111 H111       31.2824    3.2775   -6.9497 H         1 UNK         0.0947 
    112 H112       29.9729    5.7229   -5.6332 H         1 UNK         0.0806 
    113 H113       31.5190    5.7216   -6.4702 H         1 UNK         0.0806 
    114 H114       31.3313    4.7993   -4.9890 H         1 UNK         0.0806 
    115 H115       27.9494    4.4064   -7.2454 H         1 UNK         0.3000 
    116 H116       28.1004    5.5874   -9.8424 H         1 UNK         0.0850 
    117 H117       25.6157    5.2938   -9.7991 H         1 UNK         0.0810 
    118 H118       26.1961    5.9694   -8.2870 H         1 UNK         0.0810 
    119 H119       25.7459    4.2654   -8.3793 H         1 UNK         0.0810 
    120 H120       28.1097    2.2374   -8.8137 H         1 UNK         0.3040 
    121 H121       27.6941    1.2264  -11.5868 H         1 UNK         0.0766 
    122 H122       26.2717    0.2050   -9.7818 H         1 UNK         0.0812 
    123 H123       27.7243   -0.2547   -8.8974 H         1 UNK         0.0812 
    124 H124       27.3870   -0.9633  -10.4674 H         1 UNK         0.0812 
    125 H125       30.1509    2.5436   -9.9798 H         1 UNK         0.3205 
    126 H126       32.3383    2.4185   -9.8199 H         1 UNK         0.0754 
    127 H127       33.5944    1.5993  -11.7850 H         1 UNK         0.0769 
    128 H128       32.1498    2.4410  -12.3175 H         1 UNK         0.0769 
    129 H129       32.2031    0.6786  -12.3398 H         1 UNK         0.0769 
    130 H130       30.9526    0.5492   -8.1741 H         1 UNK         0.2981 
    131 H131       31.2475   -1.1226   -6.7989 H         1 UNK         0.0541 
    132 H132       30.7343   -3.4421   -9.8404 H         1 UNK         0.3459 
    133 H133       30.6407   -1.6993   -9.8586 H         1 UNK         0.3459 
    134 H134       33.5148   -2.1165   -6.3081 H         1 UNK         0.0612 
    135 H135       34.1961   -1.1940   -7.6058 H         1 UNK         0.0612 
    136 H136       34.6381    0.1212   -3.5789 H         1 UNK         0.0624 
    137 H137       34.8302   -1.3946   -4.4144 H         1 UNK         0.0624 
@<TRIPOS>BOND
     1    1    2 1    
     2    1   72 1    
     3    1   73 1    
     4    1   74 1    
     5    2    3 2    
     6    2    4 am   BACKBONE|DICT|INTERRES
     7    4    5 1    
     8    4   75 1    
     9    5    6 1    
    10    5   35 1    
    11    5   76 1    
    12    6    7 1    
    13    6   77 1    
    14    6   78 1    
    15    7    8 1    
    16    8    9 1    
    17    8   79 1    
    18    8   80 1    
    19    9   10 ar   
    20    9   14 ar   
    21   10   11 ar   
    22   10   81 1    
    23   11   12 ar   
    24   11   71 1    
    25   12   13 ar   
    26   12   82 1    
    27   13   14 ar   
    28   13   15 1    
    29   14   83 1    
    30   15   16 1    
    31   15   84 1    
    32   15   85 1    
    33   16   17 1    
    34   17   18 1    
    35   17   86 1    
    36   17   87 1    
    37   18   19 1    
    38   18   37 1    
    39   18   88 1    
    40   19   20 am   BACKBONE|DICT|INTERRES
    41   19   89 1    
    42   20   21 2    
    43   20   22 1    
    44   22   23 1    
    45   22   24 1    
    46   22   90 1    
    47   23   91 1    
    48   23   92 1    
    49   23   93 1    
    50   24   25 am   BACKBONE|DICT|INTERRES
    51   24   94 1    
    52   25   26 2    
    53   25   27 1    
    54   27   28 1    
    55   27   29 1    
    56   27   95 1    
    57   28   96 1    
    58   28   97 1    
    59   28   98 1    
    60   29   30 am   BACKBONE|DICT|INTERRES
    61   29   99 1    
    62   30   31 2    
    63   30   32 1    
    64   32   33 1    
    65   32   34 1    
    66   32  100 1    
    67   33  101 1    
    68   33  102 1    
    69   33  103 1    
    70   34   35 am   BACKBONE|DICT|INTERRES
    71   34  104 1    
    72   35   36 2    
    73   37   38 2    
    74   37   39 am   BACKBONE|DICT|INTERRES
    75   39   40 1    
    76   39  105 1    
    77   40   41 1    
    78   40   42 1    
    79   40  106 1    
    80   41  107 1    
    81   41  108 1    
    82   41  109 1    
    83   42   43 2    
    84   42   44 am   BACKBONE|DICT|INTERRES
    85   44   45 1    
    86   44  110 1    
    87   45   46 1    
    88   45   47 1    
    89   45  111 1    
    90   46  112 1    
    91   46  113 1    
    92   46  114 1    
    93   47   48 2    
    94   47   49 am   BACKBONE|DICT|INTERRES
    95   49   50 1    
    96   49  115 1    
    97   50   51 1    
    98   50   52 1    
    99   50  116 1    
   100   51  117 1    
   101   51  118 1    
   102   51  119 1    
   103   52   53 2    
   104   52   54 am   BACKBONE|DICT|INTERRES
   105   54   55 1    
   106   54  120 1    
   107   55   56 1    
   108   55   57 1    
   109   55  121 1    
   110   56  122 1    
   111   56  123 1    
   112   56  124 1    
   113   57   58 2    
   114   57   59 am   BACKBONE|DICT|INTERRES
   115   59   60 1    
   116   59  125 1    
   117   60   61 1    
   118   60   62 1    
   119   60  126 1    
   120   61  127 1    
   121   61  128 1    
   122   61  129 1    
   123   62   63 2    
   124   62   64 am   BACKBONE|DICT|INTERRES
   125   64   65 1    
   126   64  130 1    
   127   65   66 1    
   128   65   69 1    
   129   65  131 1    
   130   66   67 am   BACKBONE|DICT|INTERRES
   131   66   68 2    
   132   67  132 1    
   133   67  133 1    
   134   69   70 1    
   135   69  134 1    
   136   69  135 1    
   137   70   71 1    
   138   71  136 1    
   139   71  137 1    
@<TRIPOS>SUBSTRUCTURE
     1 UNK         1 GROUP             0       ****    0 ROOT    
