@<TRIPOS>MOLECULE
3R137
137   139    1
SMALL
USER_CHARGES


@<TRIPOS>ATOM
      1 CA         28.5706   -7.6593   -2.0153 C.3       0 UNK        -0.2020 
      2 C          27.7218   -6.6276   -1.2872 C.2       0 UNK         0.4855 
      3 O          27.3075   -6.8688   -0.1530 O.2       0 UNK        -0.5197 
      4 N          27.4641   -5.4861   -1.9331 N.am      1 UNK        -0.4892 
      5 CA         26.6345   -4.3912   -1.4291 C.3       1 UNK         0.0835 
      6 C6         27.4441   -3.0803   -1.2619 C.3       12 UNK        -0.0855 
      7 S7         28.6732   -3.1709    0.0826 S.3       12 UNK        -0.2931 
      8 C8         30.2059   -3.5941   -0.8139 C.3       12 UNK         0.0378 
      9 C9         30.6449   -2.5124   -1.7941 C.ar      12 UNK        -0.0802 
     10 C10        30.8012   -2.8119   -3.1513 C.ar      12 UNK        -0.0944 
     11 C11        31.2296   -1.8315   -4.0520 C.ar      12 UNK        -0.0787 
     12 C12        31.4955   -0.5413   -3.5833 C.ar      12 UNK        -0.0862 
     13 C13        31.3375   -0.2240   -2.2302 C.ar      12 UNK        -0.0733 
     14 C14        30.9201   -1.2189   -1.3410 C.ar      12 UNK        -0.0832 
     15 C15        31.6222    1.1824   -1.7071 C.3       12 UNK         0.0240 
     16 S16        30.9514    2.5250   -2.7496 S.3       12 UNK        -0.2522 
     17 C17        29.2133    2.0183   -2.9790 C.3       12 UNK        -0.0967 
     18 CA         28.8941    1.7639   -4.4798 C.3       5 UNK         0.0660 
     19 N          28.0787    0.5630   -4.6780 N.am      5 UNK        -0.4015 
     20 C          27.8642   -0.0298   -5.8616 C.2       4 UNK         0.4946 
     21 O          28.3700    0.3409   -6.9215 O.2       4 UNK        -0.5353 
     22 CA         26.8958   -1.2258   -5.8766 C.3       4 UNK         0.0277 
     23 CB         27.6770   -2.5329   -5.6687 C.3       4 UNK        -0.1981 
     24 N          25.7980   -1.1405   -4.9012 N.am      4 UNK        -0.4209 
     25 C          24.9214   -0.1250   -4.8116 C.2       3 UNK         0.4942 
     26 O          24.9658    0.8656   -5.5427 O.2       3 UNK        -0.5208 
     27 CA         23.8652   -0.1677   -3.6879 C.3       3 UNK         0.0250 
     28 CB         22.5308    0.4833   -4.1129 C.3       3 UNK        -0.1990 
     29 N          23.6487   -1.4931   -3.0926 N.am      3 UNK        -0.4232 
     30 C          23.1125   -2.5771   -3.6743 C.2       2 UNK         0.4993 
     31 O          22.7083   -2.6091   -4.8377 O.2       2 UNK        -0.5286 
     32 CA         23.0463   -3.8425   -2.7921 C.3       2 UNK         0.0209 
     33 CB         22.7086   -5.1165   -3.5976 C.3       2 UNK        -0.1931 
     34 N          24.2616   -4.0492   -1.9847 N.am      2 UNK        -0.4546 
     35 C          25.5114   -4.1834   -2.4543 C.2       1 UNK         0.5154 
     36 O          25.8064   -4.1114   -3.6486 O.2       1 UNK        -0.5181 
     37 C          28.2590    3.0084   -5.1332 C.2       5 UNK         0.5014 
     38 O          28.9575    3.7697   -5.8027 O.2       5 UNK        -0.5248 
     39 N          26.9434    3.1826   -4.9361 N.am      6 UNK        -0.4434 
     40 CA         26.1580    4.2898   -5.4871 C.3       6 UNK         0.0363 
     41 CB         24.8154    4.3882   -4.7450 C.3       6 UNK        -0.1936 
     42 C          25.9330    4.1437   -6.9993 C.2       6 UNK         0.5081 
     43 O          25.9773    5.1410   -7.7198 O.2       6 UNK        -0.5248 
     44 N          25.7214    2.9014   -7.4537 N.am      7 UNK        -0.4718 
     45 CA         25.5978    2.5392   -8.8672 C.3       7 UNK         0.0273 
     46 CB         25.0196    1.1177   -8.9632 C.3       7 UNK        -0.1935 
     47 C          26.9266    2.6228   -9.6418 C.2       7 UNK         0.5018 
     48 O          26.8910    2.6990  -10.8705 O.2       7 UNK        -0.5186 
     49 N          28.0572    2.5785   -8.9180 N.am      8 UNK        -0.4240 
     50 CA         29.4355    2.4682   -9.4109 C.3       8 UNK         0.0235 
     51 CB         29.8626    3.7421  -10.1697 C.3       8 UNK        -0.2000 
     52 C          29.6398    1.1748  -10.2220 C.2       8 UNK         0.4941 
     53 O          30.2072    1.2023  -11.3168 O.2       8 UNK        -0.5273 
     54 N          29.1316    0.0614   -9.6772 N.am      9 UNK        -0.4262 
     55 CA         29.1877   -1.2668  -10.2801 C.3       9 UNK         0.0264 
     56 CB         28.0933   -2.1500   -9.6579 C.3       9 UNK        -0.1955 
     57 C          30.5912   -1.8556  -10.0868 C.2       9 UNK         0.5031 
     58 O          30.8749   -2.4204   -9.0289 O.2       9 UNK        -0.5390 
     59 N          31.4580   -1.6453  -11.0869 N.am      10 UNK        -0.4204 
     60 CA         32.8832   -2.0016  -11.1701 C.3       10 UNK         0.0237 
     61 CB         33.1057   -3.5199  -11.0200 C.3       10 UNK        -0.1985 
     62 C          33.7936   -1.2071  -10.2146 C.2       10 UNK         0.4970 
     63 O          34.8752   -0.7908  -10.6316 O.2       10 UNK        -0.4914 
     64 N          33.3517   -1.0092   -8.9689 N.am      11 UNK        -0.4285 
     65 CA         34.0222   -0.2158   -7.9318 C.3       11 UNK         0.1007 
     66 C          34.1319    1.2858   -8.3132 C.2       11 UNK         0.5703 
     67 N          35.2537    1.9248   -8.0101 N.am      11 UNK        -0.7361 
     68 O          33.1931    1.8830   -8.8372 O.2       11 UNK        -0.4986 
     69 C69        33.3241   -0.3689   -6.5565 C.3       12 UNK        -0.0947 
     70 S70        33.1510   -2.1112   -6.0348 S.3       12 UNK        -0.2240 
     71 C71        31.4023   -2.1699   -5.5275 C.3       12 UNK         0.0194 
     72 H72        28.0117   -8.5867   -2.1375 H         1 UNK         0.0906 
     73 H73        28.8754   -7.3142   -3.0032 H         1 UNK         0.0906 
     74 H74        29.4705   -7.8767   -1.4406 H         1 UNK         0.0906 
     75 H75        27.7549   -5.3743   -2.8953 H         1 UNK         0.3140 
     76 H76        26.1852   -4.6561   -0.4693 H         1 UNK         0.1085 
     77 H77        27.9361   -2.8021   -2.1952 H         1 UNK         0.0836 
     78 H78        26.7762   -2.2512   -1.0201 H         1 UNK         0.0836 
     79 H79        30.0704   -4.5491   -1.3225 H         1 UNK         0.0731 
     80 H80        31.0032   -3.7500   -0.0860 H         1 UNK         0.0731 
     81 H81        30.5966   -3.8126   -3.5067 H         1 UNK         0.1312 
     82 H82        31.8260    0.2215   -4.2725 H         1 UNK         0.1406 
     83 H83        30.8023   -0.9899   -0.2902 H         1 UNK         0.1631 
     84 H84        32.7017    1.3121   -1.6216 H         1 UNK         0.0717 
     85 H85        31.2172    1.3038   -0.7012 H         1 UNK         0.0717 
     86 H86        29.0271    1.1230   -2.3846 H         1 UNK         0.0934 
     87 H87        28.5671    2.7801   -2.5373 H         1 UNK         0.0934 
     88 H88        29.8276    1.5734   -5.0146 H         1 UNK         0.0739 
     89 H89        27.6310    0.1741   -3.8624 H         1 UNK         0.3093 
     90 H90        26.4423   -1.2565   -6.8688 H         1 UNK         0.0818 
     91 H91        28.5385   -2.5934   -6.3336 H         1 UNK         0.0819 
     92 H92        27.0536   -3.4021   -5.8770 H         1 UNK         0.0819 
     93 H93        28.0525   -2.6225   -4.6493 H         1 UNK         0.0819 
     94 H94        25.6666   -1.9488   -4.3056 H         1 UNK         0.3041 
     95 H95        24.2768    0.4469   -2.8862 H         1 UNK         0.0784 
     96 H96        22.6733    1.5287   -4.3886 H         1 UNK         0.0793 
     97 H97        22.0909   -0.0184   -4.9752 H         1 UNK         0.0793 
     98 H98        21.8018    0.4619   -3.3030 H         1 UNK         0.0793 
     99 H99        23.9493   -1.5881   -2.1322 H         1 UNK         0.3024 
    100 H100       22.2275   -3.6738   -2.0903 H         1 UNK         0.1171 
    101 H101       22.6411   -5.9900   -2.9492 H         1 UNK         0.0786 
    102 H102       21.7478   -5.0164   -4.1042 H         1 UNK         0.0786 
    103 H103       23.4581   -5.3236   -4.3623 H         1 UNK         0.0786 
    104 H104       24.1150   -4.1049   -0.9853 H         1 UNK         0.2977 
    105 H105       26.4279    2.4740   -4.4343 H         1 UNK         0.3127 
    106 H106       26.7095    5.2177   -5.3197 H         1 UNK         0.0770 
    107 H107       24.2164    3.4854   -4.8698 H         1 UNK         0.0814 
    108 H108       24.2245    5.2246   -5.1207 H         1 UNK         0.0814 
    109 H109       24.9621    4.5501   -3.6771 H         1 UNK         0.0814 
    110 H110       25.6206    2.1476   -6.7768 H         1 UNK         0.2983 
    111 H111       24.8972    3.2318   -9.3388 H         1 UNK         0.0947 
    112 H112       24.8624    0.8281  -10.0031 H         1 UNK         0.0806 
    113 H113       24.0575    1.0441   -8.4557 H         1 UNK         0.0806 
    114 H114       25.6899    0.3822   -8.5175 H         1 UNK         0.0806 
    115 H115       27.9533    2.4754   -7.9169 H         1 UNK         0.3000 
    116 H116       30.0717    2.3796   -8.5284 H         1 UNK         0.0850 
    117 H117       30.9214    3.7000  -10.4284 H         1 UNK         0.0810 
    118 H118       29.7122    4.6337   -9.5611 H         1 UNK         0.0810 
    119 H119       29.3057    3.8697  -11.0983 H         1 UNK         0.0810 
    120 H120       28.7509    0.1221   -8.7340 H         1 UNK         0.3040 
    121 H121       28.9806   -1.1839  -11.3494 H         1 UNK         0.0766 
    122 H122       27.1005   -1.7378   -9.8392 H         1 UNK         0.0812 
    123 H123       28.2209   -2.2506   -8.5815 H         1 UNK         0.0812 
    124 H124       28.1135   -3.1537  -10.0840 H         1 UNK         0.0812 
    125 H125       31.1245   -1.0751  -11.8543 H         1 UNK         0.3205 
    126 H126       33.1885   -1.7294  -12.1818 H         1 UNK         0.0754 
    127 H127       34.1503   -3.7776  -11.1993 H         1 UNK         0.0769 
    128 H128       32.5057   -4.0814  -11.7360 H         1 UNK         0.0769 
    129 H129       32.8543   -3.8746  -10.0200 H         1 UNK         0.0769 
    130 H130       32.4603   -1.4261   -8.7159 H         1 UNK         0.2981 
    131 H131       35.0341   -0.6151   -7.8392 H         1 UNK         0.0541 
    132 H132       36.0243    1.4475   -7.5688 H         1 UNK         0.3459 
    133 H133       35.3344    2.9038   -8.2358 H         1 UNK         0.3459 
    134 H134       33.8910    0.1532   -5.7835 H         1 UNK         0.0612 
    135 H135       32.3415    0.1053   -6.5874 H         1 UNK         0.0612 
    136 H136       30.8007   -1.4966   -6.1398 H         1 UNK         0.0624 
    137 H137       31.0269   -3.1734   -5.7328 H         1 UNK         0.0624 
@<TRIPOS>BOND
     1    1    2 1    
     2    1   72 1    
     3    1   73 1    
     4    1   74 1    
     5    2    3 2    
     6    2    4 am   BACKBONE|DICT|INTERRES
     7    4    5 1    
     8    4   75 1    
     9    5    6 1    
    10    5   35 1    
    11    5   76 1    
    12    6    7 1    
    13    6   77 1    
    14    6   78 1    
    15    7    8 1    
    16    8    9 1    
    17    8   79 1    
    18    8   80 1    
    19    9   10 ar   
    20    9   14 ar   
    21   10   11 ar   
    22   10   81 1    
    23   11   12 ar   
    24   11   71 1    
    25   12   13 ar   
    26   12   82 1    
    27   13   14 ar   
    28   13   15 1    
    29   14   83 1    
    30   15   16 1    
    31   15   84 1    
    32   15   85 1    
    33   16   17 1    
    34   17   18 1    
    35   17   86 1    
    36   17   87 1    
    37   18   19 1    
    38   18   37 1    
    39   18   88 1    
    40   19   20 am   BACKBONE|DICT|INTERRES
    41   19   89 1    
    42   20   21 2    
    43   20   22 1    
    44   22   23 1    
    45   22   24 1    
    46   22   90 1    
    47   23   91 1    
    48   23   92 1    
    49   23   93 1    
    50   24   25 am   BACKBONE|DICT|INTERRES
    51   24   94 1    
    52   25   26 2    
    53   25   27 1    
    54   27   28 1    
    55   27   29 1    
    56   27   95 1    
    57   28   96 1    
    58   28   97 1    
    59   28   98 1    
    60   29   30 am   BACKBONE|DICT|INTERRES
    61   29   99 1    
    62   30   31 2    
    63   30   32 1    
    64   32   33 1    
    65   32   34 1    
    66   32  100 1    
    67   33  101 1    
    68   33  102 1    
    69   33  103 1    
    70   34   35 am   BACKBONE|DICT|INTERRES
    71   34  104 1    
    72   35   36 2    
    73   37   38 2    
    74   37   39 am   BACKBONE|DICT|INTERRES
    75   39   40 1    
    76   39  105 1    
    77   40   41 1    
    78   40   42 1    
    79   40  106 1    
    80   41  107 1    
    81   41  108 1    
    82   41  109 1    
    83   42   43 2    
    84   42   44 am   BACKBONE|DICT|INTERRES
    85   44   45 1    
    86   44  110 1    
    87   45   46 1    
    88   45   47 1    
    89   45  111 1    
    90   46  112 1    
    91   46  113 1    
    92   46  114 1    
    93   47   48 2    
    94   47   49 am   BACKBONE|DICT|INTERRES
    95   49   50 1    
    96   49  115 1    
    97   50   51 1    
    98   50   52 1    
    99   50  116 1    
   100   51  117 1    
   101   51  118 1    
   102   51  119 1    
   103   52   53 2    
   104   52   54 am   BACKBONE|DICT|INTERRES
   105   54   55 1    
   106   54  120 1    
   107   55   56 1    
   108   55   57 1    
   109   55  121 1    
   110   56  122 1    
   111   56  123 1    
   112   56  124 1    
   113   57   58 2    
   114   57   59 am   BACKBONE|DICT|INTERRES
   115   59   60 1    
   116   59  125 1    
   117   60   61 1    
   118   60   62 1    
   119   60  126 1    
   120   61  127 1    
   121   61  128 1    
   122   61  129 1    
   123   62   63 2    
   124   62   64 am   BACKBONE|DICT|INTERRES
   125   64   65 1    
   126   64  130 1    
   127   65   66 1    
   128   65   69 1    
   129   65  131 1    
   130   66   67 am   BACKBONE|DICT|INTERRES
   131   66   68 2    
   132   67  132 1    
   133   67  133 1    
   134   69   70 1    
   135   69  134 1    
   136   69  135 1    
   137   70   71 1    
   138   71  136 1    
   139   71  137 1    
@<TRIPOS>SUBSTRUCTURE
     1 UNK         1 GROUP             0       ****    0 ROOT    
