@<TRIPOS>MOLECULE
3R137
137   139    1
SMALL
USER_CHARGES


@<TRIPOS>ATOM
      1 CA         23.6039   -3.6375   -1.2521 C.3       0 UNK        -0.2020 
      2 C          24.7063   -2.5935   -1.1678 C.2       0 UNK         0.4855 
      3 O          24.4731   -1.5019   -0.6472 O.2       0 UNK        -0.5197 
      4 N          25.9035   -2.9151   -1.6790 N.am      1 UNK        -0.4892 
      5 CA         27.0858   -2.0438   -1.7083 C.3       1 UNK         0.0835 
      6 C6         28.3094   -2.7403   -2.3534 C.3       12 UNK        -0.0855 
      7 S7         28.7705   -4.2883   -1.5094 S.3       12 UNK        -0.2931 
      8 C8         30.5796   -4.3164   -1.7703 C.3       12 UNK         0.0378 
      9 C9         31.0200   -4.4211   -3.2324 C.ar      12 UNK        -0.0802 
     10 C10        32.2341   -3.8429   -3.6204 C.ar      12 UNK        -0.0944 
     11 C11        32.6953   -3.9599   -4.9356 C.ar      12 UNK        -0.0787 
     12 C12        31.9203   -4.6440   -5.8765 C.ar      12 UNK        -0.0862 
     13 C13        30.7008   -5.2184   -5.5101 C.ar      12 UNK        -0.0733 
     14 C14        30.2663   -5.1205   -4.1844 C.ar      12 UNK        -0.0832 
     15 C15        29.8662   -5.9625   -6.5443 C.3       12 UNK         0.0240 
     16 S16        28.9488   -4.8269   -7.6354 S.3       12 UNK        -0.2522 
     17 C17        27.7097   -4.1462   -6.4826 C.3       12 UNK        -0.0967 
     18 CA         26.9793   -2.8871   -7.0147 C.3       5 UNK         0.0660 
     19 N          25.7543   -2.6436   -6.2441 N.am      5 UNK        -0.4015 
     20 C          24.9174   -1.6009   -6.3363 C.2       4 UNK         0.4946 
     21 O          25.1313   -0.6007   -7.0203 O.2       4 UNK        -0.5353 
     22 CA         23.6062   -1.6933   -5.5425 C.3       4 UNK         0.0277 
     23 CB         23.2986   -3.0950   -4.9693 C.3       4 UNK        -0.1981 
     24 N          23.6201   -0.7120   -4.4615 N.am      4 UNK        -0.4209 
     25 C          22.5367   -0.0641   -4.0085 C.2       3 UNK         0.4942 
     26 O          21.4145   -0.2023   -4.4987 O.2       3 UNK        -0.5208 
     27 CA         22.6945    0.8745   -2.7956 C.3       3 UNK         0.0250 
     28 CB         21.7960    0.4177   -1.6323 C.3       3 UNK        -0.1990 
     29 N          24.0760    0.9634   -2.3195 N.am      3 UNK        -0.4232 
     30 C          24.9736    1.8527   -2.7671 C.2       2 UNK         0.4993 
     31 O          24.7019    2.7512   -3.5628 O.2       2 UNK        -0.5286 
     32 CA         26.4236    1.7220   -2.2636 C.3       2 UNK         0.0209 
     33 CB         26.7173    2.7792   -1.1868 C.3       2 UNK        -0.1931 
     34 N          26.7677    0.3948   -1.7386 N.am      2 UNK        -0.4546 
     35 C          26.7735   -0.7357   -2.4570 C.2       1 UNK         0.5154 
     36 O          26.5109   -0.7827   -3.6608 O.2       1 UNK        -0.5181 
     37 C          27.9329   -1.6769   -7.1174 C.2       5 UNK         0.5014 
     38 O          28.3847   -1.3618   -8.2183 O.2       5 UNK        -0.5248 
     39 N          28.1979   -0.9931   -5.9952 N.am      6 UNK        -0.4434 
     40 CA         29.1477    0.1220   -5.9403 C.3       6 UNK         0.0363 
     41 CB         29.6460    0.3202   -4.5007 C.3       6 UNK        -0.1936 
     42 C          28.6112    1.4321   -6.5432 C.2       6 UNK         0.5081 
     43 O          29.4011    2.3513   -6.7511 O.2       6 UNK        -0.5248 
     44 N          27.3079    1.5028   -6.8518 N.am      7 UNK        -0.4718 
     45 CA         26.7210    2.5966   -7.6320 C.3       7 UNK         0.0273 
     46 CB         25.2331    2.7424   -7.2732 C.3       7 UNK        -0.1935 
     47 C          26.8945    2.3904   -9.1495 C.2       7 UNK         0.5018 
     48 O          26.6666    3.3350   -9.9064 O.2       7 UNK        -0.5186 
     49 N          27.2809    1.1777   -9.5711 N.am      8 UNK        -0.4240 
     50 CA         27.4580    0.7730  -10.9666 C.3       8 UNK         0.0235 
     51 CB         26.3957   -0.2907  -11.3029 C.3       8 UNK        -0.2000 
     52 C          28.8864    0.2603  -11.2307 C.2       8 UNK         0.4941 
     53 O          29.0924   -0.4872  -12.1890 O.2       8 UNK        -0.5273 
     54 N          29.8497    0.6591  -10.3919 N.am      9 UNK        -0.4262 
     55 CA         31.2504    0.2525  -10.4514 C.3       9 UNK         0.0264 
     56 CB         31.4325   -1.0764   -9.6897 C.3       9 UNK        -0.1955 
     57 C          32.1193    1.3597   -9.8454 C.2       9 UNK         0.5031 
     58 O          31.5946    2.2879   -9.2261 O.2       9 UNK        -0.5390 
     59 N          33.4426    1.2189   -9.9947 N.am      10 UNK        -0.4204 
     60 CA         34.4552    2.1070   -9.4080 C.3       10 UNK         0.0237 
     61 CB         35.8023    1.8504  -10.1058 C.3       10 UNK        -0.1985 
     62 C          34.6026    1.9727   -7.8766 C.2       10 UNK         0.4970 
     63 O          35.3294    2.7640   -7.2744 O.2       10 UNK        -0.4914 
     64 N          33.9356    0.9754   -7.2819 N.am      11 UNK        -0.4285 
     65 CA         33.9266    0.6623   -5.8451 C.3       11 UNK         0.1007 
     66 C          33.3315    1.7741   -4.9330 C.2       11 UNK         0.5703 
     67 N          32.5213    2.6922   -5.4469 N.am      11 UNK        -0.7361 
     68 O          33.6145    1.8016   -3.7380 O.2       11 UNK        -0.4986 
     69 C69        33.2212   -0.6934   -5.5729 C.3       12 UNK        -0.0947 
     70 S70        33.9045   -2.0607   -6.5693 S.3       12 UNK        -0.2240 
     71 C71        34.0500   -3.3882   -5.3342 C.3       12 UNK         0.0194 
     72 H72        22.7531   -3.2389   -1.8039 H         1 UNK         0.0906 
     73 H73        23.9383   -4.5464   -1.7517 H         1 UNK         0.0906 
     74 H74        23.2652   -3.9048   -0.2516 H         1 UNK         0.0906 
     75 H75        26.0449   -3.8352   -2.0707 H         1 UNK         0.3140 
     76 H76        27.3379   -1.8031   -0.6733 H         1 UNK         0.1085 
     77 H77        28.1179   -2.9716   -3.4017 H         1 UNK         0.0836 
     78 H78        29.1703   -2.0691   -2.3417 H         1 UNK         0.0836 
     79 H79        31.0074   -3.4241   -1.3102 H         1 UNK         0.0731 
     80 H80        30.9920   -5.1681   -1.2280 H         1 UNK         0.0731 
     81 H81        32.8350   -3.3189   -2.8894 H         1 UNK         0.1312 
     82 H82        32.2690   -4.7306   -6.8968 H         1 UNK         0.1406 
     83 H83        29.3360   -5.5902   -3.8972 H         1 UNK         0.1631 
     84 H84        29.1656   -6.6451   -6.0606 H         1 UNK         0.0717 
     85 H85        30.5209   -6.5842   -7.1568 H         1 UNK         0.0717 
     86 H86        26.9915   -4.9446   -6.2884 H         1 UNK         0.0934 
     87 H87        28.1819   -3.9284   -5.5255 H         1 UNK         0.0934 
     88 H88        26.6412   -3.1020   -8.0306 H         1 UNK         0.0739 
     89 H89        25.4721   -3.3945   -5.6330 H         1 UNK         0.3093 
     90 H90        22.8162   -1.4385   -6.2524 H         1 UNK         0.0818 
     91 H91        22.3176   -3.1134   -4.4939 H         1 UNK         0.0819 
     92 H92        23.2791   -3.8508   -5.7558 H         1 UNK         0.0819 
     93 H93        24.0289   -3.4023   -4.2207 H         1 UNK         0.0819 
     94 H94        24.5318   -0.5160   -4.0597 H         1 UNK         0.3041 
     95 H95        22.3539    1.8635   -3.1095 H         1 UNK         0.0784 
     96 H96        20.7446    0.4277   -1.9225 H         1 UNK         0.0793 
     97 H97        22.0334   -0.5966   -1.3108 H         1 UNK         0.0793 
     98 H98        21.8978    1.0760   -0.7694 H         1 UNK         0.0793 
     99 H99        24.3724    0.2451   -1.6641 H         1 UNK         0.3024 
    100 H100       27.0656    1.9234   -3.1232 H         1 UNK         0.1171 
    101 H101       26.4981    3.7829   -1.5541 H         1 UNK         0.0786 
    102 H102       27.7673    2.7671   -0.8938 H         1 UNK         0.0786 
    103 H103       26.1148    2.6213   -0.2914 H         1 UNK         0.0786 
    104 H104       26.9583    0.3421   -0.7478 H         1 UNK         0.2977 
    105 H105       27.6714   -1.1927   -5.1491 H         1 UNK         0.3127 
    106 H106       30.0129   -0.1532   -6.5461 H         1 UNK         0.0770 
    107 H107       28.8483    0.6378   -3.8354 H         1 UNK         0.0814 
    108 H108       30.4151    1.0907   -4.4587 H         1 UNK         0.0814 
    109 H109       30.0846   -0.5943   -4.1017 H         1 UNK         0.0814 
    110 H110       26.7076    0.7020   -6.6773 H         1 UNK         0.2983 
    111 H111       27.2202    3.5324   -7.3702 H         1 UNK         0.0947 
    112 H112       24.8005    3.6167   -7.7611 H         1 UNK         0.0806 
    113 H113       25.0931    2.8690   -6.2004 H         1 UNK         0.0806 
    114 H114       24.6506    1.8770   -7.5887 H         1 UNK         0.0806 
    115 H115       27.4840    0.4598   -8.8829 H         1 UNK         0.3000 
    116 H116       27.3105    1.6254  -11.6325 H         1 UNK         0.0850 
    117 H117       26.4449   -0.5820  -12.3529 H         1 UNK         0.0810 
    118 H118       25.3885    0.0839  -11.1198 H         1 UNK         0.0810 
    119 H119       26.5315   -1.1927  -10.7042 H         1 UNK         0.0810 
    120 H120       29.6407    1.3364   -9.6683 H         1 UNK         0.3040 
    121 H121       31.5480    0.1240  -11.4943 H         1 UNK         0.0766 
    122 H122       32.4590   -1.4390   -9.7500 H         1 UNK         0.0812 
    123 H123       30.7930   -1.8584  -10.1000 H         1 UNK         0.0812 
    124 H124       31.1822   -0.9728   -8.6331 H         1 UNK         0.0812 
    125 H125       33.7903    0.4289  -10.5204 H         1 UNK         0.3205 
    126 H126       34.1582    3.1386   -9.6092 H         1 UNK         0.0754 
    127 H127       36.5730    2.5263   -9.7323 H         1 UNK         0.0769 
    128 H128       35.7299    2.0116  -11.1816 H         1 UNK         0.0769 
    129 H129       36.1552    0.8316   -9.9402 H         1 UNK         0.0769 
    130 H130       33.3792    0.3662   -7.8598 H         1 UNK         0.2981 
    131 H131       34.9710    0.5557   -5.5465 H         1 UNK         0.0541 
    132 H132       32.2528    2.6586   -6.4190 H         1 UNK         0.3459 
    133 H133       32.1446    3.4085   -4.8478 H         1 UNK         0.3459 
    134 H134       32.1568   -0.6245   -5.7954 H         1 UNK         0.0612 
    135 H135       33.2941   -0.9503   -4.5146 H         1 UNK         0.0612 
    136 H136       34.5955   -3.0172   -4.4651 H         1 UNK         0.0624 
    137 H137       34.6582   -4.1892   -5.7563 H         1 UNK         0.0624 
@<TRIPOS>BOND
     1    1    2 1    
     2    1   72 1    
     3    1   73 1    
     4    1   74 1    
     5    2    3 2    
     6    2    4 am   BACKBONE|DICT|INTERRES
     7    4    5 1    
     8    4   75 1    
     9    5    6 1    
    10    5   35 1    
    11    5   76 1    
    12    6    7 1    
    13    6   77 1    
    14    6   78 1    
    15    7    8 1    
    16    8    9 1    
    17    8   79 1    
    18    8   80 1    
    19    9   10 ar   
    20    9   14 ar   
    21   10   11 ar   
    22   10   81 1    
    23   11   12 ar   
    24   11   71 1    
    25   12   13 ar   
    26   12   82 1    
    27   13   14 ar   
    28   13   15 1    
    29   14   83 1    
    30   15   16 1    
    31   15   84 1    
    32   15   85 1    
    33   16   17 1    
    34   17   18 1    
    35   17   86 1    
    36   17   87 1    
    37   18   19 1    
    38   18   37 1    
    39   18   88 1    
    40   19   20 am   BACKBONE|DICT|INTERRES
    41   19   89 1    
    42   20   21 2    
    43   20   22 1    
    44   22   23 1    
    45   22   24 1    
    46   22   90 1    
    47   23   91 1    
    48   23   92 1    
    49   23   93 1    
    50   24   25 am   BACKBONE|DICT|INTERRES
    51   24   94 1    
    52   25   26 2    
    53   25   27 1    
    54   27   28 1    
    55   27   29 1    
    56   27   95 1    
    57   28   96 1    
    58   28   97 1    
    59   28   98 1    
    60   29   30 am   BACKBONE|DICT|INTERRES
    61   29   99 1    
    62   30   31 2    
    63   30   32 1    
    64   32   33 1    
    65   32   34 1    
    66   32  100 1    
    67   33  101 1    
    68   33  102 1    
    69   33  103 1    
    70   34   35 am   BACKBONE|DICT|INTERRES
    71   34  104 1    
    72   35   36 2    
    73   37   38 2    
    74   37   39 am   BACKBONE|DICT|INTERRES
    75   39   40 1    
    76   39  105 1    
    77   40   41 1    
    78   40   42 1    
    79   40  106 1    
    80   41  107 1    
    81   41  108 1    
    82   41  109 1    
    83   42   43 2    
    84   42   44 am   BACKBONE|DICT|INTERRES
    85   44   45 1    
    86   44  110 1    
    87   45   46 1    
    88   45   47 1    
    89   45  111 1    
    90   46  112 1    
    91   46  113 1    
    92   46  114 1    
    93   47   48 2    
    94   47   49 am   BACKBONE|DICT|INTERRES
    95   49   50 1    
    96   49  115 1    
    97   50   51 1    
    98   50   52 1    
    99   50  116 1    
   100   51  117 1    
   101   51  118 1    
   102   51  119 1    
   103   52   53 2    
   104   52   54 am   BACKBONE|DICT|INTERRES
   105   54   55 1    
   106   54  120 1    
   107   55   56 1    
   108   55   57 1    
   109   55  121 1    
   110   56  122 1    
   111   56  123 1    
   112   56  124 1    
   113   57   58 2    
   114   57   59 am   BACKBONE|DICT|INTERRES
   115   59   60 1    
   116   59  125 1    
   117   60   61 1    
   118   60   62 1    
   119   60  126 1    
   120   61  127 1    
   121   61  128 1    
   122   61  129 1    
   123   62   63 2    
   124   62   64 am   BACKBONE|DICT|INTERRES
   125   64   65 1    
   126   64  130 1    
   127   65   66 1    
   128   65   69 1    
   129   65  131 1    
   130   66   67 am   BACKBONE|DICT|INTERRES
   131   66   68 2    
   132   67  132 1    
   133   67  133 1    
   134   69   70 1    
   135   69  134 1    
   136   69  135 1    
   137   70   71 1    
   138   71  136 1    
   139   71  137 1    
@<TRIPOS>SUBSTRUCTURE
     1 UNK         1 GROUP             0       ****    0 ROOT    
