@<TRIPOS>MOLECULE
3R137
137   139    1
SMALL
USER_CHARGES


@<TRIPOS>ATOM
      1 CA         24.0166   -4.4287   -2.1657 C.3       0 UNK        -0.2020 
      2 C          24.9098   -3.6671   -1.1986 C.2       0 UNK         0.4855 
      3 O          24.5425   -3.4812   -0.0378 O.2       0 UNK        -0.5197 
      4 N          26.0773   -3.2108   -1.6672 N.am      1 UNK        -0.4892 
      5 CA         27.0843   -2.4579   -0.9052 C.3       1 UNK         0.0835 
      6 C6         28.4892   -2.6163   -1.5392 C.3       12 UNK        -0.0855 
      7 S7         29.0919   -4.3299   -1.4228 S.3       12 UNK        -0.2931 
      8 C8         30.8376   -4.1248   -1.9148 C.3       12 UNK         0.0378 
      9 C9         31.0721   -4.0867   -3.4247 C.ar      12 UNK        -0.0802 
     10 C10        32.0984   -3.2872   -3.9410 C.ar      12 UNK        -0.0944 
     11 C11        32.4210   -3.3310   -5.3009 C.ar      12 UNK        -0.0787 
     12 C12        31.6859   -4.1581   -6.1566 C.ar      12 UNK        -0.0862 
     13 C13        30.6531   -4.9581   -5.6588 C.ar      12 UNK        -0.0733 
     14 C14        30.3530   -4.9175   -4.2936 C.ar      12 UNK        -0.0832 
     15 C15        29.9221   -5.9333   -6.5753 C.3       12 UNK         0.0240 
     16 S16        28.9012   -5.1115   -7.8392 S.3       12 UNK        -0.2522 
     17 C17        27.5664   -4.3773   -6.8340 C.3       12 UNK        -0.0967 
     18 CA         27.0928   -3.0109   -7.3888 C.3       5 UNK         0.0660 
     19 N          25.7962   -2.6224   -6.8259 N.am      5 UNK        -0.4015 
     20 C          25.1084   -1.5158   -7.1410 C.2       4 UNK         0.4946 
     21 O          25.4790   -0.6934   -7.9805 O.2       4 UNK        -0.5353 
     22 CA         23.8177   -1.2327   -6.3494 C.3       4 UNK         0.0277 
     23 CB         23.3236   -2.4182   -5.4875 C.3       4 UNK        -0.1981 
     24 N          23.9653   -0.0269   -5.5250 N.am      4 UNK        -0.4209 
     25 C          24.9002    0.1921   -4.5875 C.2       3 UNK         0.4942 
     26 O          25.7746   -0.6269   -4.2900 O.2       3 UNK        -0.5208 
     27 CA         24.8967    1.5634   -3.8833 C.3       3 UNK         0.0250 
     28 CB         23.6793    2.4633   -4.2073 C.3       3 UNK        -0.1990 
     29 N          25.0793    1.3967   -2.4389 N.am      3 UNK        -0.4232 
     30 C          24.2265    0.8241   -1.5776 C.2       2 UNK         0.4993 
     31 O          23.0826    0.4622   -1.8611 O.2       2 UNK        -0.5286 
     32 CA         24.7871    0.5408   -0.1740 C.3       2 UNK         0.0209 
     33 CB         23.6865    0.5047    0.9022 C.3       2 UNK        -0.1931 
     34 N          25.4748   -0.7482   -0.1947 N.am      2 UNK        -0.4546 
     35 C          26.6701   -0.9767   -0.7524 C.2       1 UNK         0.5154 
     36 O          27.4050   -0.0729   -1.1572 O.2       1 UNK        -0.5181 
     37 C          28.1695   -1.9190   -7.2150 C.2       5 UNK         0.5014 
     38 O          28.8820   -1.6232   -8.1745 O.2       5 UNK        -0.5248 
     39 N          28.2335   -1.2973   -6.0272 N.am      6 UNK        -0.4434 
     40 CA         29.1954   -0.2333   -5.7351 C.3       6 UNK         0.0363 
     41 CB         29.2733    0.0215   -4.2229 C.3       6 UNK        -0.1936 
     42 C          28.9128    1.0699   -6.4958 C.2       6 UNK         0.5081 
     43 O          29.8552    1.8101   -6.7702 O.2       6 UNK        -0.5248 
     44 N          27.6460    1.3242   -6.8496 N.am      7 UNK        -0.4718 
     45 CA         27.2644    2.4415   -7.7137 C.3       7 UNK         0.0273 
     46 CB         25.7841    2.7953   -7.5054 C.3       7 UNK        -0.1935 
     47 C          27.5617    2.1292   -9.1870 C.2       7 UNK         0.5018 
     48 O          28.1286    2.9754   -9.8777 O.2       7 UNK        -0.5186 
     49 N          27.2018    0.9154   -9.6295 N.am      8 UNK        -0.4240 
     50 CA         27.4054    0.4230  -10.9941 C.3       8 UNK         0.0235 
     51 CB         26.7042   -0.9351  -11.1602 C.3       8 UNK        -0.2000 
     52 C          28.8870    0.3232  -11.3932 C.2       8 UNK         0.4941 
     53 O          29.2495    0.7733  -12.4807 O.2       8 UNK        -0.5273 
     54 N          29.7150   -0.2485  -10.5087 N.am      9 UNK        -0.4262 
     55 CA         31.1579   -0.4071  -10.7106 C.3       9 UNK         0.0264 
     56 CB         31.6238   -1.6808   -9.9862 C.3       9 UNK        -0.1955 
     57 C          31.9808    0.8213  -10.2736 C.2       9 UNK         0.5031 
     58 O          33.1864    0.8390  -10.5272 O.2       9 UNK        -0.5390 
     59 N          31.3331    1.8176   -9.6467 N.am      10 UNK        -0.4204 
     60 CA         31.9022    3.0676   -9.1220 C.3       10 UNK         0.0237 
     61 CB         32.3871    3.9759  -10.2722 C.3       10 UNK        -0.1985 
     62 C          32.9799    2.8173   -8.0476 C.2       10 UNK         0.4970 
     63 O          34.1002    3.3210   -8.1537 O.2       10 UNK        -0.4914 
     64 N          32.6097    2.0246   -7.0376 N.am      11 UNK        -0.4285 
     65 CA         33.4651    1.6128   -5.9135 C.3       11 UNK         0.1007 
     66 C          33.5157    2.6457   -4.7521 C.2       11 UNK         0.5703 
     67 N          32.6797    3.6778   -4.7402 N.am      11 UNK        -0.7361 
     68 O          34.3392    2.5143   -3.8496 O.2       11 UNK        -0.4986 
     69 C69        33.0820    0.2016   -5.3907 C.3       12 UNK        -0.0947 
     70 S70        33.1300   -1.0483   -6.7182 S.3       12 UNK        -0.2240 
     71 C71        33.6188   -2.5584   -5.8365 C.3       12 UNK         0.0194 
     72 H72        23.7037   -5.3738   -1.7224 H         1 UNK         0.0906 
     73 H73        23.1239   -3.8451   -2.3896 H         1 UNK         0.0906 
     74 H74        24.5259   -4.6500   -3.1032 H         1 UNK         0.0906 
     75 H75        26.3127   -3.3686   -2.6358 H         1 UNK         0.3140 
     76 H76        27.1298   -2.8646    0.1079 H         1 UNK         0.1085 
     77 H77        28.4701   -2.3227   -2.5889 H         1 UNK         0.0836 
     78 H78        29.2140   -1.9681   -1.0424 H         1 UNK         0.0836 
     79 H79        31.2417   -3.2303   -1.4383 H         1 UNK         0.0731 
     80 H80        31.4039   -4.9649   -1.5109 H         1 UNK         0.0731 
     81 H81        32.6819   -2.6655   -3.2756 H         1 UNK         0.1312 
     82 H82        31.9390   -4.2039   -7.2072 H         1 UNK         0.1406 
     83 H83        29.5819   -5.5652   -3.8997 H         1 UNK         0.1631 
     84 H84        29.2928   -6.6145   -6.0004 H         1 UNK         0.0717 
     85 H85        30.6599   -6.5586   -7.0800 H         1 UNK         0.0717 
     86 H86        26.7401   -5.0900   -6.8365 H         1 UNK         0.0934 
     87 H87        27.8807   -4.2855   -5.7928 H         1 UNK         0.0934 
     88 H88        26.9271   -3.1248   -8.4622 H         1 UNK         0.0739 
     89 H89        25.4189   -3.2212   -6.1074 H         1 UNK         0.3093 
     90 H90        23.0476   -1.0165   -7.0914 H         1 UNK         0.0818 
     91 H91        22.3680   -2.1822   -5.0189 H         1 UNK         0.0819 
     92 H92        23.1656   -3.3120   -6.0928 H         1 UNK         0.0819 
     93 H93        24.0200   -2.6699   -4.6876 H         1 UNK         0.0819 
     94 H94        23.3061    0.7145   -5.7147 H         1 UNK         0.3041 
     95 H95        25.7898    2.0793   -4.2387 H         1 UNK         0.0784 
     96 H96        23.6308    2.7084   -5.2682 H         1 UNK         0.0793 
     97 H97        22.7322    1.9954   -3.9370 H         1 UNK         0.0793 
     98 H98        23.7416    3.4092   -3.6692 H         1 UNK         0.0793 
     99 H99        26.0285    1.5311   -2.1123 H         1 UNK         0.3024 
    100 H100       25.4960    1.3296    0.0889 H         1 UNK         0.1171 
    101 H101       23.1324    1.4440    0.9234 H         1 UNK         0.0786 
    102 H102       24.1101    0.3553    1.8955 H         1 UNK         0.0786 
    103 H103       22.9671   -0.2956    0.7227 H         1 UNK         0.0786 
    104 H104       24.9263   -1.5651    0.0595 H         1 UNK         0.2977 
    105 H105       27.5472   -1.5067   -5.3118 H         1 UNK         0.3127 
    106 H106       30.1755   -0.5819   -6.0659 H         1 UNK         0.0770 
    107 H107       28.2899    0.1911   -3.7843 H         1 UNK         0.0814 
    108 H108       29.8820    0.8992   -4.0006 H         1 UNK         0.0814 
    109 H109       29.7388   -0.8200   -3.7119 H         1 UNK         0.0814 
    110 H110       26.9388    0.6308   -6.6478 H         1 UNK         0.2983 
    111 H111       27.8552    3.3188   -7.4389 H         1 UNK         0.0947 
    112 H112       25.4734    3.5869   -8.1887 H         1 UNK         0.0806 
    113 H113       25.6122    3.1621   -6.4949 H         1 UNK         0.0806 
    114 H114       25.1276    1.9421   -7.6764 H         1 UNK         0.0806 
    115 H115       26.7045    0.2955   -8.9929 H         1 UNK         0.3000 
    116 H116       26.9296    1.1351  -11.6717 H         1 UNK         0.0850 
    117 H117       26.8129   -1.3095  -12.1790 H         1 UNK         0.0810 
    118 H118       25.6364   -0.8577  -10.9544 H         1 UNK         0.0810 
    119 H119       27.1190   -1.6877  -10.4890 H         1 UNK         0.0810 
    120 H120       29.3333   -0.6402   -9.6469 H         1 UNK         0.3040 
    121 H121       31.3532   -0.5491  -11.7757 H         1 UNK         0.0766 
    122 H122       32.6993   -1.8286  -10.0920 H         1 UNK         0.0812 
    123 H123       31.1324   -2.5666  -10.3887 H         1 UNK         0.0812 
    124 H124       31.4026   -1.6384   -8.9208 H         1 UNK         0.0812 
    125 H125       30.3423    1.6957   -9.4877 H         1 UNK         0.3205 
    126 H126       31.0838    3.5866   -8.6204 H         1 UNK         0.0754 
    127 H127       32.7143    4.9445   -9.8923 H         1 UNK         0.0769 
    128 H128       31.5889    4.1626  -10.9908 H         1 UNK         0.0769 
    129 H129       33.2277    3.5375  -10.8109 H         1 UNK         0.0769 
    130 H130       31.6360    1.7313   -6.9903 H         1 UNK         0.2981 
    131 H131       34.4889    1.5452   -6.2863 H         1 UNK         0.0541 
    132 H132       31.9947    3.7859   -5.4708 H         1 UNK         0.3459 
    133 H133       32.7267    4.3440   -3.9857 H         1 UNK         0.3459 
    134 H134       32.0861    0.2079   -4.9494 H         1 UNK         0.0612 
    135 H135       33.7660   -0.1028   -4.5968 H         1 UNK         0.0612 
    136 H136       34.1678   -3.1950   -6.5319 H         1 UNK         0.0624 
    137 H137       34.3209   -2.3190   -5.0368 H         1 UNK         0.0624 
@<TRIPOS>BOND
     1    1    2 1    
     2    1   72 1    
     3    1   73 1    
     4    1   74 1    
     5    2    3 2    
     6    2    4 am   BACKBONE|DICT|INTERRES
     7    4    5 1    
     8    4   75 1    
     9    5    6 1    
    10    5   35 1    
    11    5   76 1    
    12    6    7 1    
    13    6   77 1    
    14    6   78 1    
    15    7    8 1    
    16    8    9 1    
    17    8   79 1    
    18    8   80 1    
    19    9   10 ar   
    20    9   14 ar   
    21   10   11 ar   
    22   10   81 1    
    23   11   12 ar   
    24   11   71 1    
    25   12   13 ar   
    26   12   82 1    
    27   13   14 ar   
    28   13   15 1    
    29   14   83 1    
    30   15   16 1    
    31   15   84 1    
    32   15   85 1    
    33   16   17 1    
    34   17   18 1    
    35   17   86 1    
    36   17   87 1    
    37   18   19 1    
    38   18   37 1    
    39   18   88 1    
    40   19   20 am   BACKBONE|DICT|INTERRES
    41   19   89 1    
    42   20   21 2    
    43   20   22 1    
    44   22   23 1    
    45   22   24 1    
    46   22   90 1    
    47   23   91 1    
    48   23   92 1    
    49   23   93 1    
    50   24   25 am   BACKBONE|DICT|INTERRES
    51   24   94 1    
    52   25   26 2    
    53   25   27 1    
    54   27   28 1    
    55   27   29 1    
    56   27   95 1    
    57   28   96 1    
    58   28   97 1    
    59   28   98 1    
    60   29   30 am   BACKBONE|DICT|INTERRES
    61   29   99 1    
    62   30   31 2    
    63   30   32 1    
    64   32   33 1    
    65   32   34 1    
    66   32  100 1    
    67   33  101 1    
    68   33  102 1    
    69   33  103 1    
    70   34   35 am   BACKBONE|DICT|INTERRES
    71   34  104 1    
    72   35   36 2    
    73   37   38 2    
    74   37   39 am   BACKBONE|DICT|INTERRES
    75   39   40 1    
    76   39  105 1    
    77   40   41 1    
    78   40   42 1    
    79   40  106 1    
    80   41  107 1    
    81   41  108 1    
    82   41  109 1    
    83   42   43 2    
    84   42   44 am   BACKBONE|DICT|INTERRES
    85   44   45 1    
    86   44  110 1    
    87   45   46 1    
    88   45   47 1    
    89   45  111 1    
    90   46  112 1    
    91   46  113 1    
    92   46  114 1    
    93   47   48 2    
    94   47   49 am   BACKBONE|DICT|INTERRES
    95   49   50 1    
    96   49  115 1    
    97   50   51 1    
    98   50   52 1    
    99   50  116 1    
   100   51  117 1    
   101   51  118 1    
   102   51  119 1    
   103   52   53 2    
   104   52   54 am   BACKBONE|DICT|INTERRES
   105   54   55 1    
   106   54  120 1    
   107   55   56 1    
   108   55   57 1    
   109   55  121 1    
   110   56  122 1    
   111   56  123 1    
   112   56  124 1    
   113   57   58 2    
   114   57   59 am   BACKBONE|DICT|INTERRES
   115   59   60 1    
   116   59  125 1    
   117   60   61 1    
   118   60   62 1    
   119   60  126 1    
   120   61  127 1    
   121   61  128 1    
   122   61  129 1    
   123   62   63 2    
   124   62   64 am   BACKBONE|DICT|INTERRES
   125   64   65 1    
   126   64  130 1    
   127   65   66 1    
   128   65   69 1    
   129   65  131 1    
   130   66   67 am   BACKBONE|DICT|INTERRES
   131   66   68 2    
   132   67  132 1    
   133   67  133 1    
   134   69   70 1    
   135   69  134 1    
   136   69  135 1    
   137   70   71 1    
   138   71  136 1    
   139   71  137 1    
@<TRIPOS>SUBSTRUCTURE
     1 UNK         1 GROUP             0       ****    0 ROOT    
