@<TRIPOS>MOLECULE
3R137
137   139    1
SMALL
USER_CHARGES


@<TRIPOS>ATOM
      1 CA         24.7745   -5.8690   -5.2195 C.3       0 UNK        -0.2020 
      2 C          25.2197   -5.7729   -3.7682 C.2       0 UNK         0.4855 
      3 O          24.6829   -6.4772   -2.9129 O.2       0 UNK        -0.5197 
      4 N          26.1873   -4.8983   -3.4823 N.am      1 UNK        -0.4892 
      5 CA         26.6976   -4.5952   -2.1466 C.3       1 UNK         0.0835 
      6 C6         27.6044   -5.7491   -1.5986 C.3       12 UNK        -0.0855 
      7 S7         29.0275   -5.3557   -0.5152 S.3       12 UNK        -0.2931 
      8 C8         30.4453   -5.8143   -1.5629 C.3       12 UNK         0.0378 
      9 C9         30.6447   -4.8349   -2.7100 C.ar      12 UNK        -0.0802 
     10 C10        31.4459   -3.7020   -2.5366 C.ar      12 UNK        -0.0944 
     11 C11        31.6452   -2.8070   -3.5920 C.ar      12 UNK        -0.0787 
     12 C12        31.0239   -3.0442   -4.8232 C.ar      12 UNK        -0.0862 
     13 C13        30.2173   -4.1715   -5.0060 C.ar      12 UNK        -0.0733 
     14 C14        30.0420   -5.0680   -3.9498 C.ar      12 UNK        -0.0832 
     15 C15        29.5414   -4.4381   -6.3430 C.3       12 UNK         0.0240 
     16 S16        27.8377   -3.7968   -6.3731 S.3       12 UNK        -0.2522 
     17 C17        28.1571   -2.0194   -6.5991 C.3       12 UNK        -0.0967 
     18 CA         26.8668   -1.2172   -6.8995 C.3       5 UNK         0.0660 
     19 N          25.9826   -1.1607   -5.7308 N.am      5 UNK        -0.4015 
     20 C          24.6562   -0.9772   -5.7843 C.2       4 UNK         0.4946 
     21 O          24.0242   -0.8632   -6.8350 O.2       4 UNK        -0.5353 
     22 CA         23.9156   -0.8444   -4.4408 C.3       4 UNK         0.0277 
     23 CB         23.5272   -2.2244   -3.8895 C.3       4 UNK        -0.1981 
     24 N          24.6788   -0.1080   -3.4276 N.am      4 UNK        -0.4209 
     25 C          25.0804    1.1651   -3.5375 C.2       3 UNK         0.4942 
     26 O          24.8119    1.8659   -4.5107 O.2       3 UNK        -0.5208 
     27 CA         25.9628    1.7557   -2.4189 C.3       3 UNK         0.0250 
     28 CB         25.1044    2.4101   -1.3186 C.3       3 UNK        -0.1990 
     29 N          26.9526    0.8178   -1.8630 N.am      3 UNK        -0.4232 
     30 C          26.7277   -0.2947   -1.1517 C.2       2 UNK         0.4993 
     31 O          25.6099   -0.6620   -0.7797 O.2       2 UNK        -0.5286 
     32 CA         27.9465   -1.1829   -0.8559 C.3       2 UNK         0.0209 
     33 CB         28.4589   -0.9529    0.5744 C.3       2 UNK        -0.1931 
     34 N          27.5968   -2.5939   -1.0261 N.am      2 UNK        -0.4546 
     35 C          27.2595   -3.1551   -2.1945 C.2       1 UNK         0.5154 
     36 O          27.2980   -2.5421   -3.2693 O.2       1 UNK        -0.5181 
     37 C          27.2053    0.1716   -7.4952 C.2       5 UNK         0.5014 
     38 O          27.9829    0.2179   -8.4515 O.2       5 UNK        -0.5248 
     39 N          26.6531    1.2836   -6.9747 N.am      6 UNK        -0.4434 
     40 CA         26.9342    2.6498   -7.4535 C.3       6 UNK         0.0363 
     41 CB         26.2349    3.6878   -6.5650 C.3       6 UNK        -0.1936 
     42 C          26.5910    2.8996   -8.9339 C.2       6 UNK         0.5081 
     43 O          27.2173    3.7573   -9.5556 O.2       6 UNK        -0.5248 
     44 N          25.6694    2.1058   -9.4984 N.am      7 UNK        -0.4718 
     45 CA         25.3646    2.0611  -10.9339 C.3       7 UNK         0.0273 
     46 CB         24.1605    1.1334  -11.1616 C.3       7 UNK        -0.1935 
     47 C          26.5562    1.6217  -11.8118 C.2       7 UNK         0.5018 
     48 O          26.5952    1.9766  -12.9900 O.2       7 UNK        -0.5186 
     49 N          27.5088    0.8866  -11.2216 N.am      8 UNK        -0.4240 
     50 CA         28.7788    0.4774  -11.8231 C.3       8 UNK         0.0235 
     51 CB         28.9234   -1.0478  -11.6623 C.3       8 UNK        -0.2000 
     52 C          29.9680    1.2284  -11.1880 C.2       8 UNK         0.4941 
     53 O          31.0989    0.7522  -11.2887 O.2       8 UNK        -0.5273 
     54 N          29.6989    2.3695  -10.5301 N.am      9 UNK        -0.4262 
     55 CA         30.6327    3.2256   -9.7826 C.3       9 UNK         0.0264 
     56 CB         31.7469    3.7822  -10.6949 C.3       9 UNK        -0.1955 
     57 C          31.1885    2.5890   -8.4912 C.2       9 UNK         0.5031 
     58 O          32.1677    3.1010   -7.9413 O.2       9 UNK        -0.5390 
     59 N          30.5409    1.5176   -8.0060 N.am      10 UNK        -0.4204 
     60 CA         30.8484    0.7653   -6.7880 C.3       10 UNK         0.0237 
     61 CB         30.3959    1.5591   -5.5398 C.3       10 UNK        -0.1985 
     62 C          32.3109    0.2868   -6.7563 C.2       10 UNK         0.4970 
     63 O          32.6842   -0.5518   -7.5773 O.2       10 UNK        -0.4914 
     64 N          33.0905    0.8248   -5.8162 N.am      11 UNK        -0.4285 
     65 CA         34.5251    0.5747   -5.6323 C.3       11 UNK         0.1007 
     66 C          35.3661    1.8691   -5.8406 C.2       11 UNK         0.5703 
     67 N          34.8295    2.9207   -6.4532 N.am      11 UNK        -0.7361 
     68 O          36.5329    1.9222   -5.4587 O.2       11 UNK        -0.4986 
     69 C69        34.7969   -0.1201   -4.2674 C.3       12 UNK        -0.0947 
     70 S70        34.1428   -1.8236   -4.2222 S.3       12 UNK        -0.2240 
     71 C71        32.5325   -1.5854   -3.4091 C.3       12 UNK         0.0194 
     72 H72        25.1316   -5.0258   -5.8102 H         1 UNK         0.0906 
     73 H73        23.6865   -5.8814   -5.2798 H         1 UNK         0.0906 
     74 H74        25.1524   -6.7871   -5.6685 H         1 UNK         0.0906 
     75 H75        26.5856   -4.3020   -4.2019 H         1 UNK         0.3140 
     76 H76        25.8329   -4.5202   -1.4829 H         1 UNK         0.1085 
     77 H77        26.9708   -6.4416   -1.0422 H         1 UNK         0.0836 
     78 H78        27.9749   -6.3521   -2.4267 H         1 UNK         0.0836 
     79 H79        30.3128   -6.8290   -1.9419 H         1 UNK         0.0731 
     80 H80        31.3429   -5.8409   -0.9433 H         1 UNK         0.0731 
     81 H81        31.9190   -3.5218   -1.5809 H         1 UNK         0.1312 
     82 H82        31.1786   -2.3560   -5.6422 H         1 UNK         0.1406 
     83 H83        29.4293   -5.9457   -4.0984 H         1 UNK         0.1631 
     84 H84        29.5128   -5.5123   -6.5316 H         1 UNK         0.0717 
     85 H85        30.1191   -4.0045   -7.1608 H         1 UNK         0.0717 
     86 H86        28.6535   -1.6300   -5.7085 H         1 UNK         0.0934 
     87 H87        28.8707   -1.9364   -7.4211 H         1 UNK         0.0934 
     88 H88        26.3360   -1.7440   -7.6956 H         1 UNK         0.0739 
     89 H89        26.4210   -1.3117   -4.8286 H         1 UNK         0.3093 
     90 H90        22.9979   -0.2839   -4.6313 H         1 UNK         0.0818 
     91 H91        22.9829   -2.8077   -4.6336 H         1 UNK         0.0819 
     92 H92        24.4048   -2.7991   -3.5988 H         1 UNK         0.0819 
     93 H93        22.8835   -2.1340   -3.0144 H         1 UNK         0.0819 
     94 H94        24.9165   -0.5949   -2.5675 H         1 UNK         0.3041 
     95 H95        26.5492    2.5505   -2.8833 H         1 UNK         0.0784 
     96 H96        24.4677    3.1901   -1.7383 H         1 UNK         0.0793 
     97 H97        24.4488    1.6920   -0.8255 H         1 UNK         0.0793 
     98 H98        25.7267    2.8762   -0.5548 H         1 UNK         0.0793 
     99 H99        27.9082    1.0161   -2.1263 H         1 UNK         0.3024 
    100 H100       28.7467   -0.9486   -1.5621 H         1 UNK         0.1171 
    101 H101       29.3315   -1.5712    0.7867 H         1 UNK         0.0786 
    102 H102       28.7551    0.0867    0.7208 H         1 UNK         0.0786 
    103 H103       27.6949   -1.1825    1.3186 H         1 UNK         0.0786 
    104 H104       27.5407   -3.1540   -0.1876 H         1 UNK         0.2977 
    105 H105       25.9989    1.2044   -6.2043 H         1 UNK         0.3127 
    106 H106       28.0095    2.8081   -7.3561 H         1 UNK         0.0770 
    107 H107       25.1515    3.5633   -6.5761 H         1 UNK         0.0814 
    108 H108       26.4489    4.7023   -6.9045 H         1 UNK         0.0814 
    109 H109       26.5751    3.6194   -5.5319 H         1 UNK         0.0814 
    110 H110       25.2010    1.4300   -8.9112 H         1 UNK         0.2983 
    111 H111       25.0879    3.0703  -11.2470 H         1 UNK         0.0947 
    112 H112       24.3720    0.1117  -10.8435 H         1 UNK         0.0806 
    113 H113       23.8900    1.0966  -12.2180 H         1 UNK         0.0806 
    114 H114       23.2824    1.4807  -10.6168 H         1 UNK         0.0806 
    115 H115       27.4086    0.6579  -10.2359 H         1 UNK         0.3000 
    116 H116       28.7883    0.7120  -12.8893 H         1 UNK         0.0850 
    117 H117       29.8250   -1.4134  -12.1554 H         1 UNK         0.0810 
    118 H118       28.0786   -1.5745  -12.1064 H         1 UNK         0.0810 
    119 H119       28.9841   -1.3370  -10.6121 H         1 UNK         0.0810 
    120 H120       28.7339    2.6821  -10.4994 H         1 UNK         0.3040 
    121 H121       30.0378    4.0771   -9.4490 H         1 UNK         0.0766 
    122 H122       32.4482    3.0055  -11.0005 H         1 UNK         0.0812 
    123 H123       32.3243    4.5516  -10.1809 H         1 UNK         0.0812 
    124 H124       31.3338    4.2372  -11.5950 H         1 UNK         0.0812 
    125 H125       29.7529    1.1563   -8.5342 H         1 UNK         0.3205 
    126 H126       30.2505   -0.1421   -6.8311 H         1 UNK         0.0754 
    127 H127       30.5790    1.0005   -4.6217 H         1 UNK         0.0769 
    128 H128       29.3250    1.7575   -5.5726 H         1 UNK         0.0769 
    129 H129       30.9015    2.5218   -5.4558 H         1 UNK         0.0769 
    130 H130       32.6992    1.5430   -5.2248 H         1 UNK         0.2981 
    131 H131       34.8795   -0.0968   -6.4161 H         1 UNK         0.0541 
    132 H132       33.8925    2.8846   -6.8414 H         1 UNK         0.3459 
    133 H133       35.3901    3.7474   -6.5841 H         1 UNK         0.3459 
    134 H134       34.3835    0.4614   -3.4416 H         1 UNK         0.0612 
    135 H135       35.8691   -0.1957   -4.0790 H         1 UNK         0.0612 
    136 H136       32.0281   -0.7136   -3.8221 H         1 UNK         0.0624 
    137 H137       32.6937   -1.3752   -2.3507 H         1 UNK         0.0624 
@<TRIPOS>BOND
     1    1    2 1    
     2    1   72 1    
     3    1   73 1    
     4    1   74 1    
     5    2    3 2    
     6    2    4 am   BACKBONE|DICT|INTERRES
     7    4    5 1    
     8    4   75 1    
     9    5    6 1    
    10    5   35 1    
    11    5   76 1    
    12    6    7 1    
    13    6   77 1    
    14    6   78 1    
    15    7    8 1    
    16    8    9 1    
    17    8   79 1    
    18    8   80 1    
    19    9   10 ar   
    20    9   14 ar   
    21   10   11 ar   
    22   10   81 1    
    23   11   12 ar   
    24   11   71 1    
    25   12   13 ar   
    26   12   82 1    
    27   13   14 ar   
    28   13   15 1    
    29   14   83 1    
    30   15   16 1    
    31   15   84 1    
    32   15   85 1    
    33   16   17 1    
    34   17   18 1    
    35   17   86 1    
    36   17   87 1    
    37   18   19 1    
    38   18   37 1    
    39   18   88 1    
    40   19   20 am   BACKBONE|DICT|INTERRES
    41   19   89 1    
    42   20   21 2    
    43   20   22 1    
    44   22   23 1    
    45   22   24 1    
    46   22   90 1    
    47   23   91 1    
    48   23   92 1    
    49   23   93 1    
    50   24   25 am   BACKBONE|DICT|INTERRES
    51   24   94 1    
    52   25   26 2    
    53   25   27 1    
    54   27   28 1    
    55   27   29 1    
    56   27   95 1    
    57   28   96 1    
    58   28   97 1    
    59   28   98 1    
    60   29   30 am   BACKBONE|DICT|INTERRES
    61   29   99 1    
    62   30   31 2    
    63   30   32 1    
    64   32   33 1    
    65   32   34 1    
    66   32  100 1    
    67   33  101 1    
    68   33  102 1    
    69   33  103 1    
    70   34   35 am   BACKBONE|DICT|INTERRES
    71   34  104 1    
    72   35   36 2    
    73   37   38 2    
    74   37   39 am   BACKBONE|DICT|INTERRES
    75   39   40 1    
    76   39  105 1    
    77   40   41 1    
    78   40   42 1    
    79   40  106 1    
    80   41  107 1    
    81   41  108 1    
    82   41  109 1    
    83   42   43 2    
    84   42   44 am   BACKBONE|DICT|INTERRES
    85   44   45 1    
    86   44  110 1    
    87   45   46 1    
    88   45   47 1    
    89   45  111 1    
    90   46  112 1    
    91   46  113 1    
    92   46  114 1    
    93   47   48 2    
    94   47   49 am   BACKBONE|DICT|INTERRES
    95   49   50 1    
    96   49  115 1    
    97   50   51 1    
    98   50   52 1    
    99   50  116 1    
   100   51  117 1    
   101   51  118 1    
   102   51  119 1    
   103   52   53 2    
   104   52   54 am   BACKBONE|DICT|INTERRES
   105   54   55 1    
   106   54  120 1    
   107   55   56 1    
   108   55   57 1    
   109   55  121 1    
   110   56  122 1    
   111   56  123 1    
   112   56  124 1    
   113   57   58 2    
   114   57   59 am   BACKBONE|DICT|INTERRES
   115   59   60 1    
   116   59  125 1    
   117   60   61 1    
   118   60   62 1    
   119   60  126 1    
   120   61  127 1    
   121   61  128 1    
   122   61  129 1    
   123   62   63 2    
   124   62   64 am   BACKBONE|DICT|INTERRES
   125   64   65 1    
   126   64  130 1    
   127   65   66 1    
   128   65   69 1    
   129   65  131 1    
   130   66   67 am   BACKBONE|DICT|INTERRES
   131   66   68 2    
   132   67  132 1    
   133   67  133 1    
   134   69   70 1    
   135   69  134 1    
   136   69  135 1    
   137   70   71 1    
   138   71  136 1    
   139   71  137 1    
@<TRIPOS>SUBSTRUCTURE
     1 UNK         1 GROUP             0       ****    0 ROOT    
