@<TRIPOS>MOLECULE
3R137
137   139    1
SMALL
USER_CHARGES


@<TRIPOS>ATOM
      1 CA         24.8119   -6.1560   -4.9607 C.3       0 UNK        -0.2020 
      2 C          25.3098   -5.6139   -3.6299 C.2       0 UNK         0.4855 
      3 O          24.5004   -5.2853   -2.7620 O.2       0 UNK        -0.5197 
      4 N          26.6365   -5.5092   -3.4716 N.am      1 UNK        -0.4892 
      5 CA         27.3403   -4.9769   -2.2974 C.3       1 UNK         0.0835 
      6 C6         28.8716   -5.0728   -2.5123 C.3       12 UNK        -0.0855 
      7 S7         29.8567   -4.5927   -1.0510 S.3       12 UNK        -0.2931 
      8 C8         31.3076   -3.8002   -1.8247 C.3       12 UNK         0.0378 
      9 C9         30.9463   -2.5438   -2.6081 C.ar      12 UNK        -0.0802 
     10 C10        31.0762   -2.5162   -4.0014 C.ar      12 UNK        -0.0944 
     11 C11        30.7406   -1.3658   -4.7218 C.ar      12 UNK        -0.0787 
     12 C12        30.2795   -0.2378   -4.0398 C.ar      12 UNK        -0.0862 
     13 C13        30.1413   -0.2523   -2.6500 C.ar      12 UNK        -0.0733 
     14 C14        30.4833   -1.4067   -1.9388 C.ar      12 UNK        -0.0832 
     15 C15        29.6113    0.9672   -1.9123 C.3       12 UNK         0.0240 
     16 S16        27.8435    0.7668   -1.5344 S.3       12 UNK        -0.2522 
     17 C17        27.0429    1.9890   -2.6271 C.3       12 UNK        -0.0967 
     18 CA         27.1432    1.6849   -4.1437 C.3       5 UNK         0.0660 
     19 N          26.7455    0.3124   -4.4843 N.am      5 UNK        -0.4015 
     20 C          26.8424   -0.2400   -5.7039 C.2       4 UNK         0.4946 
     21 O          27.3426    0.3354   -6.6704 O.2       4 UNK        -0.5353 
     22 CA         26.2269   -1.6322   -5.9173 C.3       4 UNK         0.0277 
     23 CB         27.3182   -2.7096   -6.0248 C.3       4 UNK        -0.1981 
     24 N          25.2612   -1.9898   -4.8746 N.am      4 UNK        -0.4209 
     25 C          24.0162   -1.4926   -4.7991 C.2       3 UNK         0.4942 
     26 O          23.5621   -0.6868   -5.6115 O.2       3 UNK        -0.5208 
     27 CA         23.1334   -1.9378   -3.6191 C.3       3 UNK         0.0250 
     28 CB         22.1823   -3.0659   -4.0482 C.3       3 UNK        -0.1990 
     29 N          23.9151   -2.3660   -2.4564 N.am      3 UNK        -0.4232 
     30 C          24.5182   -1.5141   -1.6130 C.2       2 UNK         0.4993 
     31 O          24.3965   -0.2913   -1.6849 O.2       2 UNK        -0.5286 
     32 CA         25.4380   -2.1141   -0.5308 C.3       2 UNK         0.0209 
     33 CB         24.6634   -2.3153    0.7813 C.3       2 UNK        -0.1931 
     34 N          26.0770   -3.3778   -0.9164 N.am      2 UNK        -0.4546 
     35 C          26.8700   -3.5392   -1.9856 C.2       1 UNK         0.5154 
     36 O          27.1584   -2.6264   -2.7584 O.2       1 UNK        -0.5181 
     37 C          26.3698    2.7540   -4.9457 C.2       5 UNK         0.5014 
     38 O          26.9161    3.8299   -5.1915 O.2       5 UNK        -0.5248 
     39 N          25.1284    2.4430   -5.3504 N.am      6 UNK        -0.4434 
     40 CA         24.3053    3.2918   -6.2137 C.3       6 UNK         0.0363 
     41 CB         22.8397    2.8381   -6.1202 C.3       6 UNK        -0.1936 
     42 C          24.7759    3.2911   -7.6800 C.2       6 UNK         0.5081 
     43 O          24.5462    4.2771   -8.3810 O.2       6 UNK        -0.5248 
     44 N          25.4115    2.1966   -8.1215 N.am      7 UNK        -0.4718 
     45 CA         25.9767    2.0547   -9.4635 C.3       7 UNK         0.0273 
     46 CB         25.9366    0.5767   -9.8899 C.3       7 UNK        -0.1935 
     47 C          27.4096    2.6017   -9.5232 C.2       7 UNK         0.5018 
     48 O          27.7294    3.3442  -10.4519 O.2       7 UNK        -0.5186 
     49 N          28.2347    2.2194   -8.5340 N.am      8 UNK        -0.4240 
     50 CA         29.6545    2.5613   -8.3717 C.3       8 UNK         0.0235 
     51 CB         29.8147    4.0518   -8.0076 C.3       8 UNK        -0.2000 
     52 C          30.5166    2.1382   -9.5801 C.2       8 UNK         0.4941 
     53 O          31.3953    2.8873  -10.0149 O.2       8 UNK        -0.5273 
     54 N          30.2336    0.9443  -10.1194 N.am      9 UNK        -0.4262 
     55 CA         30.8473    0.3778  -11.3224 C.3       9 UNK         0.0264 
     56 CB         29.9241   -0.7273  -11.8694 C.3       9 UNK        -0.1955 
     57 C          32.2814   -0.1244  -11.0673 C.2       9 UNK         0.5031 
     58 O          32.5201   -1.3344  -11.0724 O.2       9 UNK        -0.5390 
     59 N          33.2015    0.8173  -10.8163 N.am      10 UNK        -0.4204 
     60 CA         34.6367    0.6696  -10.5190 C.3       10 UNK         0.0237 
     61 CB         35.3901   -0.0360  -11.6640 C.3       10 UNK        -0.1985 
     62 C          34.9372    0.0104   -9.1599 C.2       10 UNK         0.4970 
     63 O          35.7757    0.5256   -8.4190 O.2       10 UNK        -0.4914 
     64 N          34.2258   -1.0780   -8.8493 N.am      11 UNK        -0.4285 
     65 CA         34.2203   -1.8016   -7.5697 C.3       11 UNK         0.1007 
     66 C          35.5797   -2.4925   -7.2430 C.2       11 UNK         0.5703 
     67 N          35.8321   -2.8529   -5.9909 N.am      11 UNK        -0.7361 
     68 O          36.3938   -2.7604   -8.1258 O.2       11 UNK        -0.4986 
     69 C69        33.6447   -0.9446   -6.4005 C.3       12 UNK        -0.0947 
     70 S70        32.0671   -0.1253   -6.8211 S.3       12 UNK        -0.2240 
     71 C71        30.8462   -1.3398   -6.2394 C.3       12 UNK         0.0194 
     72 H72        24.0309   -6.8979   -4.7961 H         1 UNK         0.0906 
     73 H73        24.3956   -5.3494   -5.5633 H         1 UNK         0.0906 
     74 H74        25.6107   -6.6296   -5.5312 H         1 UNK         0.0906 
     75 H75        27.2350   -5.7887   -4.2354 H         1 UNK         0.3140 
     76 H76        27.0808   -5.6155   -1.4503 H         1 UNK         0.1085 
     77 H77        29.1461   -6.0987   -2.7630 H         1 UNK         0.0836 
     78 H78        29.1611   -4.4697   -3.3736 H         1 UNK         0.0836 
     79 H79        31.8092   -4.5271   -2.4656 H         1 UNK         0.0731 
     80 H80        32.0232   -3.5383   -1.0441 H         1 UNK         0.0731 
     81 H81        31.4294   -3.3932   -4.5261 H         1 UNK         0.1312 
     82 H82        30.0309    0.6489   -4.6030 H         1 UNK         0.1406 
     83 H83        30.3687   -1.4284   -0.8636 H         1 UNK         0.1631 
     84 H84        29.7805    1.8765   -2.4907 H         1 UNK         0.0717 
     85 H85        30.1588    1.0957   -0.9776 H         1 UNK         0.0717 
     86 H86        25.9950    2.0429   -2.3239 H         1 UNK         0.0934 
     87 H87        27.4674    2.9708   -2.4069 H         1 UNK         0.0934 
     88 H88        28.1854    1.7956   -4.4390 H         1 UNK         0.0739 
     89 H89        26.3857   -0.2488   -3.7241 H         1 UNK         0.3093 
     90 H90        25.6958   -1.6061   -6.8715 H         1 UNK         0.0818 
     91 H91        27.9320   -2.5454   -6.9109 H         1 UNK         0.0819 
     92 H92        27.9889   -2.7024   -5.1655 H         1 UNK         0.0819 
     93 H93        26.8889   -3.7074   -6.1118 H         1 UNK         0.0819 
     94 H94        25.6191   -2.5549   -4.1128 H         1 UNK         0.3041 
     95 H95        22.5218   -1.0805   -3.3288 H         1 UNK         0.0784 
     96 H96        21.5511   -2.7473   -4.8790 H         1 UNK         0.0793 
     97 H97        22.7234   -3.9535   -4.3743 H         1 UNK         0.0793 
     98 H98        21.5205   -3.3582   -3.2328 H         1 UNK         0.0793 
     99 H99        24.0726   -3.3647   -2.3489 H         1 UNK         0.3024 
    100 H100       26.2346   -1.3900   -0.3505 H         1 UNK         0.1171 
    101 H101       25.3223   -2.6426    1.5858 H         1 UNK         0.0786 
    102 H102       24.1979   -1.3834    1.1058 H         1 UNK         0.0786 
    103 H103       23.8698   -3.0557    0.6723 H         1 UNK         0.0786 
    104 H104       25.8444   -4.1877   -0.3595 H         1 UNK         0.2977 
    105 H105       24.7474    1.5382   -5.1080 H         1 UNK         0.3127 
    106 H106       24.3675    4.3190   -5.8474 H         1 UNK         0.0770 
    107 H107       22.7094    1.8156   -6.4771 H         1 UNK         0.0814 
    108 H108       22.1949    3.4779   -6.7243 H         1 UNK         0.0814 
    109 H109       22.4728    2.8855   -5.0948 H         1 UNK         0.0814 
    110 H110       25.6120    1.4535   -7.4654 H         1 UNK         0.2983 
    111 H111       25.3714    2.6232  -10.1736 H         1 UNK         0.0947 
    112 H112       26.3453    0.4507  -10.8934 H         1 UNK         0.0806 
    113 H113       24.9140    0.1995   -9.9080 H         1 UNK         0.0806 
    114 H114       26.5149   -0.0611   -9.2209 H         1 UNK         0.0806 
    115 H115       27.8644    1.5747   -7.8347 H         1 UNK         0.3000 
    116 H116       30.0103    1.9768   -7.5224 H         1 UNK         0.0850 
    117 H117       30.8521    4.2859   -7.7657 H         1 UNK         0.0810 
    118 H118       29.2120    4.3124   -7.1371 H         1 UNK         0.0810 
    119 H119       29.5164    4.7030   -8.8297 H         1 UNK         0.0810 
    120 H120       29.5188    0.3855   -9.6770 H         1 UNK         0.3040 
    121 H121       30.9079    1.1616  -12.0807 H         1 UNK         0.0766 
    122 H122       28.9383   -0.3340  -12.1184 H         1 UNK         0.0812 
    123 H123       29.7912   -1.5371  -11.1507 H         1 UNK         0.0812 
    124 H124       30.3361   -1.1644  -12.7800 H         1 UNK         0.0812 
    125 H125       32.8376    1.7633  -10.7218 H         1 UNK         0.3205 
    126 H126       35.0227    1.6886  -10.4588 H         1 UNK         0.0754 
    127 H127       36.4641   -0.0441  -11.4733 H         1 UNK         0.0769 
    128 H128       35.2334    0.4737  -12.6146 H         1 UNK         0.0769 
    129 H129       35.0770   -1.0735  -11.7838 H         1 UNK         0.0769 
    130 H130       33.5804   -1.4185   -9.5576 H         1 UNK         0.2981 
    131 H131       33.5288   -2.6294   -7.7282 H         1 UNK         0.0541 
    132 H132       35.1760   -2.6628   -5.2505 H         1 UNK         0.3459 
    133 H133       36.7018   -3.3184   -5.7832 H         1 UNK         0.3459 
    134 H134       34.3555   -0.1670   -6.1167 H         1 UNK         0.0612 
    135 H135       33.4920   -1.5538   -5.5091 H         1 UNK         0.0612 
    136 H136       29.8743   -1.0729   -6.6554 H         1 UNK         0.0624 
    137 H137       31.0939   -2.3246   -6.6379 H         1 UNK         0.0624 
@<TRIPOS>BOND
     1    1    2 1    
     2    1   72 1    
     3    1   73 1    
     4    1   74 1    
     5    2    3 2    
     6    2    4 am   BACKBONE|DICT|INTERRES
     7    4    5 1    
     8    4   75 1    
     9    5    6 1    
    10    5   35 1    
    11    5   76 1    
    12    6    7 1    
    13    6   77 1    
    14    6   78 1    
    15    7    8 1    
    16    8    9 1    
    17    8   79 1    
    18    8   80 1    
    19    9   10 ar   
    20    9   14 ar   
    21   10   11 ar   
    22   10   81 1    
    23   11   12 ar   
    24   11   71 1    
    25   12   13 ar   
    26   12   82 1    
    27   13   14 ar   
    28   13   15 1    
    29   14   83 1    
    30   15   16 1    
    31   15   84 1    
    32   15   85 1    
    33   16   17 1    
    34   17   18 1    
    35   17   86 1    
    36   17   87 1    
    37   18   19 1    
    38   18   37 1    
    39   18   88 1    
    40   19   20 am   BACKBONE|DICT|INTERRES
    41   19   89 1    
    42   20   21 2    
    43   20   22 1    
    44   22   23 1    
    45   22   24 1    
    46   22   90 1    
    47   23   91 1    
    48   23   92 1    
    49   23   93 1    
    50   24   25 am   BACKBONE|DICT|INTERRES
    51   24   94 1    
    52   25   26 2    
    53   25   27 1    
    54   27   28 1    
    55   27   29 1    
    56   27   95 1    
    57   28   96 1    
    58   28   97 1    
    59   28   98 1    
    60   29   30 am   BACKBONE|DICT|INTERRES
    61   29   99 1    
    62   30   31 2    
    63   30   32 1    
    64   32   33 1    
    65   32   34 1    
    66   32  100 1    
    67   33  101 1    
    68   33  102 1    
    69   33  103 1    
    70   34   35 am   BACKBONE|DICT|INTERRES
    71   34  104 1    
    72   35   36 2    
    73   37   38 2    
    74   37   39 am   BACKBONE|DICT|INTERRES
    75   39   40 1    
    76   39  105 1    
    77   40   41 1    
    78   40   42 1    
    79   40  106 1    
    80   41  107 1    
    81   41  108 1    
    82   41  109 1    
    83   42   43 2    
    84   42   44 am   BACKBONE|DICT|INTERRES
    85   44   45 1    
    86   44  110 1    
    87   45   46 1    
    88   45   47 1    
    89   45  111 1    
    90   46  112 1    
    91   46  113 1    
    92   46  114 1    
    93   47   48 2    
    94   47   49 am   BACKBONE|DICT|INTERRES
    95   49   50 1    
    96   49  115 1    
    97   50   51 1    
    98   50   52 1    
    99   50  116 1    
   100   51  117 1    
   101   51  118 1    
   102   51  119 1    
   103   52   53 2    
   104   52   54 am   BACKBONE|DICT|INTERRES
   105   54   55 1    
   106   54  120 1    
   107   55   56 1    
   108   55   57 1    
   109   55  121 1    
   110   56  122 1    
   111   56  123 1    
   112   56  124 1    
   113   57   58 2    
   114   57   59 am   BACKBONE|DICT|INTERRES
   115   59   60 1    
   116   59  125 1    
   117   60   61 1    
   118   60   62 1    
   119   60  126 1    
   120   61  127 1    
   121   61  128 1    
   122   61  129 1    
   123   62   63 2    
   124   62   64 am   BACKBONE|DICT|INTERRES
   125   64   65 1    
   126   64  130 1    
   127   65   66 1    
   128   65   69 1    
   129   65  131 1    
   130   66   67 am   BACKBONE|DICT|INTERRES
   131   66   68 2    
   132   67  132 1    
   133   67  133 1    
   134   69   70 1    
   135   69  134 1    
   136   69  135 1    
   137   70   71 1    
   138   71  136 1    
   139   71  137 1    
@<TRIPOS>SUBSTRUCTURE
     1 UNK         1 GROUP             0       ****    0 ROOT    
