@<TRIPOS>MOLECULE
3R137
137   139    1
SMALL
USER_CHARGES


@<TRIPOS>ATOM
      1 CA         23.8524    0.0455   -6.6764 C.3       0 UNK        -0.2020 
      2 C          24.2475   -1.4234   -6.6724 C.2       0 UNK         0.4855 
      3 O          23.7234   -2.2060   -7.4653 O.2       0 UNK        -0.5197 
      4 N          25.1485   -1.8119   -5.7653 N.am      1 UNK        -0.4892 
      5 CA         25.6152   -3.1844   -5.5626 C.3       1 UNK         0.0835 
      6 C6         27.0654   -3.2173   -5.0197 C.3       12 UNK        -0.0855 
      7 S7         28.2609   -2.6726   -6.2841 S.3       12 UNK        -0.2931 
      8 C8         29.7433   -3.6140   -5.8091 C.3       12 UNK         0.0378 
      9 C9         30.5611   -2.8679   -4.7671 C.ar      12 UNK        -0.0802 
     10 C10        31.5658   -1.9873   -5.1764 C.ar      12 UNK        -0.0944 
     11 C11        32.3377   -1.2962   -4.2384 C.ar      12 UNK        -0.0787 
     12 C12        32.0927   -1.4935   -2.8762 C.ar      12 UNK        -0.0862 
     13 C13        31.0943   -2.3772   -2.4507 C.ar      12 UNK        -0.0733 
     14 C14        30.3324   -3.0647   -3.4017 C.ar      12 UNK        -0.0832 
     15 C15        30.8649   -2.6059   -0.9609 C.3       12 UNK         0.0240 
     16 S16        29.2037   -2.1024   -0.4035 S.3       12 UNK        -0.2522 
     17 C17        29.1172   -0.3656   -0.9558 C.3       12 UNK        -0.0967 
     18 CA         28.0155   -0.1849   -2.0268 C.3       5 UNK         0.0660 
     19 N          26.6761   -0.3780   -1.4622 N.am      5 UNK        -0.4015 
     20 C          25.5390   -0.4090   -2.1669 C.2       4 UNK         0.4946 
     21 O          25.4868   -0.3766   -3.4004 O.2       4 UNK        -0.5353 
     22 CA         24.2380   -0.4404   -1.3570 C.3       4 UNK         0.0277 
     23 CB         23.9321    0.9654   -0.7975 C.3       4 UNK        -0.1981 
     24 N          23.1667   -0.8898   -2.2414 N.am      4 UNK        -0.4209 
     25 C          21.9063   -1.1781   -1.8971 C.2       3 UNK         0.4942 
     26 O          21.4721   -1.1224   -0.7460 O.2       3 UNK        -0.5208 
     27 CA         20.9721   -1.6087   -3.0391 C.3       3 UNK         0.0250 
     28 CB         20.6078   -0.4111   -3.9334 C.3       3 UNK        -0.1990 
     29 N          21.5596   -2.6732   -3.8541 N.am      3 UNK        -0.4232 
     30 C          21.6566   -3.9544   -3.4700 C.2       2 UNK         0.4993 
     31 O          21.2130   -4.3903   -2.4071 O.2       2 UNK        -0.5286 
     32 CA         22.3687   -4.9149   -4.4372 C.3       2 UNK         0.0209 
     33 CB         21.3673   -5.5220   -5.4334 C.3       2 UNK        -0.1931 
     34 N          23.4615   -4.2739   -5.1742 N.am      2 UNK        -0.4546 
     35 C          24.6255   -3.9002   -4.6260 C.2       1 UNK         0.5154 
     36 O          24.9044   -4.0679   -3.4372 O.2       1 UNK        -0.5181 
     37 C          28.1096    1.1998   -2.6935 C.2       5 UNK         0.5014 
     38 O          27.8896    2.2130   -2.0248 O.2       5 UNK        -0.5248 
     39 N          28.4125    1.2115   -3.9931 N.am      6 UNK        -0.4434 
     40 CA         28.4610    2.3872   -4.8524 C.3       6 UNK         0.0363 
     41 CB         27.0289    2.8287   -5.2162 C.3       6 UNK        -0.1936 
     42 C          29.2521    2.0147   -6.1085 C.2       6 UNK         0.5081 
     43 O          29.4700    0.8284   -6.3643 O.2       6 UNK        -0.5248 
     44 N          29.6212    3.0240   -6.9063 N.am      7 UNK        -0.4718 
     45 CA         30.4186    2.9119   -8.1363 C.3       7 UNK         0.0273 
     46 CB         30.9407    4.3092   -8.5176 C.3       7 UNK        -0.1935 
     47 C          29.7239    2.2075   -9.3256 C.2       7 UNK         0.5018 
     48 O          30.0942    2.4530  -10.4744 O.2       7 UNK        -0.5186 
     49 N          28.7716    1.3064   -9.0517 N.am      8 UNK        -0.4240 
     50 CA         28.1185    0.4317  -10.0298 C.3       8 UNK         0.0235 
     51 CB         26.9328   -0.2814   -9.3607 C.3       8 UNK        -0.2000 
     52 C          29.0921   -0.5857  -10.6524 C.2       8 UNK         0.4941 
     53 O          28.9215   -0.9506  -11.8156 O.2       8 UNK        -0.5273 
     54 N          30.1190   -0.9771   -9.8851 N.am      9 UNK        -0.4262 
     55 CA         31.2653   -1.7694  -10.3350 C.3       9 UNK         0.0264 
     56 CB         31.4444   -2.9721   -9.3913 C.3       9 UNK        -0.1955 
     57 C          32.5367   -0.9000  -10.4130 C.2       9 UNK         0.5031 
     58 O          33.6365   -1.4133  -10.1988 O.2       9 UNK        -0.5390 
     59 N          32.3716    0.4050  -10.6848 N.am      10 UNK        -0.4204 
     60 CA         33.3802    1.4700  -10.8057 C.3       10 UNK         0.0237 
     61 CB         34.3736    1.1808  -11.9483 C.3       10 UNK        -0.1985 
     62 C          34.1240    1.8265   -9.5046 C.2       10 UNK         0.4970 
     63 O          34.3157    3.0132   -9.2400 O.2       10 UNK        -0.4914 
     64 N          34.5329    0.8129   -8.7327 N.am      11 UNK        -0.4285 
     65 CA         35.3087    0.9086   -7.4822 C.3       11 UNK         0.1007 
     66 C          36.7642    1.4424   -7.6617 C.2       11 UNK         0.5703 
     67 N          37.3245    1.4441   -8.8659 N.am      11 UNK        -0.7361 
     68 O          37.4146    1.8288   -6.6931 O.2       11 UNK        -0.4986 
     69 C69        34.5434    1.6238   -6.3285 C.3       12 UNK        -0.0947 
     70 S70        32.9471    0.8372   -5.9360 S.3       12 UNK        -0.2240 
     71 C71        33.4722   -0.3837   -4.6911 C.3       12 UNK         0.0194 
     72 H72        24.1653    0.5161   -7.6075 H         1 UNK         0.0906 
     73 H73        22.7706    0.1449   -6.5946 H         1 UNK         0.0906 
     74 H74        24.3071    0.5909   -5.8491 H         1 UNK         0.0906 
     75 H75        25.4678   -1.1484   -5.0599 H         1 UNK         0.3140 
     76 H76        25.6047   -3.7192   -6.5155 H         1 UNK         0.1085 
     77 H77        27.3249   -4.2307   -4.7081 H         1 UNK         0.0836 
     78 H78        27.1674   -2.5899   -4.1335 H         1 UNK         0.0836 
     79 H79        30.3486   -3.7809   -6.7003 H         1 UNK         0.0731 
     80 H80        29.4719   -4.6069   -5.4480 H         1 UNK         0.0731 
     81 H81        31.7497   -1.8361   -6.2302 H         1 UNK         0.1312 
     82 H82        32.6934   -0.9708   -2.1442 H         1 UNK         0.1406 
     83 H83        29.5609   -3.7496   -3.0766 H         1 UNK         0.1631 
     84 H84        31.6077   -2.0710   -0.3670 H         1 UNK         0.0717 
     85 H85        31.0036   -3.6648   -0.7388 H         1 UNK         0.0717 
     86 H86        28.9259    0.2709   -0.0896 H         1 UNK         0.0934 
     87 H87        30.0901   -0.0552   -1.3404 H         1 UNK         0.0934 
     88 H88        28.1631   -0.9427   -2.7987 H         1 UNK         0.0739 
     89 H89        26.6254   -0.3973   -0.4547 H         1 UNK         0.3093 
     90 H90        24.3448   -1.1573   -0.5404 H         1 UNK         0.0818 
     91 H91        24.7521    1.3333   -0.1796 H         1 UNK         0.0819 
     92 H92        23.7796    1.6897   -1.5988 H         1 UNK         0.0819 
     93 H93        23.0402    0.9678   -0.1714 H         1 UNK         0.0819 
     94 H94        23.4609   -0.9810   -3.2053 H         1 UNK         0.3041 
     95 H95        20.0495   -1.9862   -2.5921 H         1 UNK         0.0784 
     96 H96        20.1457    0.3842   -3.3468 H         1 UNK         0.0793 
     97 H97        21.4828    0.0152   -4.4249 H         1 UNK         0.0793 
     98 H98        19.8944   -0.6967   -4.7067 H         1 UNK         0.0793 
     99 H99        21.9390   -2.4149   -4.7526 H         1 UNK         0.3024 
    100 H100       22.7908   -5.7256   -3.8381 H         1 UNK         0.1171 
    101 H101       20.9243   -4.7615   -6.0778 H         1 UNK         0.0786 
    102 H102       21.8444   -6.2664   -6.0712 H         1 UNK         0.0786 
    103 H103       20.5510   -6.0219   -4.9099 H         1 UNK         0.0786 
    104 H104       23.2991   -4.0510   -6.1491 H         1 UNK         0.2977 
    105 H105       28.6431    0.3517   -4.4806 H         1 UNK         0.3127 
    106 H106       28.9855    3.1930   -4.3347 H         1 UNK         0.0770 
    107 H107       27.0354    3.7050   -5.8651 H         1 UNK         0.0814 
    108 H108       26.4543    3.0928   -4.3283 H         1 UNK         0.0814 
    109 H109       26.4877    2.0382   -5.7378 H         1 UNK         0.0814 
    110 H110       29.3568    3.9617   -6.6391 H         1 UNK         0.2983 
    111 H111       31.2885    2.2960   -7.9015 H         1 UNK         0.0947 
    112 H112       31.6241    4.2588   -9.3666 H         1 UNK         0.0806 
    113 H113       31.4947    4.7637   -7.6960 H         1 UNK         0.0806 
    114 H114       30.1273    4.9819   -8.7915 H         1 UNK         0.0806 
    115 H115       28.6129    1.0996   -8.0702 H         1 UNK         0.3000 
    116 H116       27.7341    1.0578  -10.8379 H         1 UNK         0.0850 
    117 H117       27.2517   -0.8943   -8.5169 H         1 UNK         0.0810 
    118 H118       26.4210   -0.9378  -10.0658 H         1 UNK         0.0810 
    119 H119       26.1986    0.4355   -8.9947 H         1 UNK         0.0810 
    120 H120       30.1596   -0.6306   -8.9356 H         1 UNK         0.3040 
    121 H121       31.0877   -2.1560  -11.3405 H         1 UNK         0.0766 
    122 H122       30.5249   -3.5517   -9.3069 H         1 UNK         0.0812 
    123 H123       31.7379   -2.6558   -8.3911 H         1 UNK         0.0812 
    124 H124       32.2187   -3.6467   -9.7590 H         1 UNK         0.0812 
    125 H125       31.4207    0.7308  -10.8149 H         1 UNK         0.3205 
    126 H126       32.8193    2.3626  -11.0879 H         1 UNK         0.0754 
    127 H127       35.0558    2.0198  -12.0920 H         1 UNK         0.0769 
    128 H128       33.8536    1.0222  -12.8931 H         1 UNK         0.0769 
    129 H129       34.9830    0.2987  -11.7500 H         1 UNK         0.0769 
    130 H130       34.3432   -0.1274   -9.0719 H         1 UNK         0.2981 
    131 H131       35.4518   -0.1257   -7.1688 H         1 UNK         0.0541 
    132 H132       36.8137    1.1134   -9.6681 H         1 UNK         0.3459 
    133 H133       38.2693    1.7794   -8.9695 H         1 UNK         0.3459 
    134 H134       34.3554    2.6677   -6.5827 H         1 UNK         0.0612 
    135 H135       35.1422    1.6432   -5.4164 H         1 UNK         0.0612 
    136 H136       34.2684   -1.0013   -5.1084 H         1 UNK         0.0624 
    137 H137       33.9010    0.1486   -3.8407 H         1 UNK         0.0624 
@<TRIPOS>BOND
     1    1    2 1    
     2    1   72 1    
     3    1   73 1    
     4    1   74 1    
     5    2    3 2    
     6    2    4 am   BACKBONE|DICT|INTERRES
     7    4    5 1    
     8    4   75 1    
     9    5    6 1    
    10    5   35 1    
    11    5   76 1    
    12    6    7 1    
    13    6   77 1    
    14    6   78 1    
    15    7    8 1    
    16    8    9 1    
    17    8   79 1    
    18    8   80 1    
    19    9   10 ar   
    20    9   14 ar   
    21   10   11 ar   
    22   10   81 1    
    23   11   12 ar   
    24   11   71 1    
    25   12   13 ar   
    26   12   82 1    
    27   13   14 ar   
    28   13   15 1    
    29   14   83 1    
    30   15   16 1    
    31   15   84 1    
    32   15   85 1    
    33   16   17 1    
    34   17   18 1    
    35   17   86 1    
    36   17   87 1    
    37   18   19 1    
    38   18   37 1    
    39   18   88 1    
    40   19   20 am   BACKBONE|DICT|INTERRES
    41   19   89 1    
    42   20   21 2    
    43   20   22 1    
    44   22   23 1    
    45   22   24 1    
    46   22   90 1    
    47   23   91 1    
    48   23   92 1    
    49   23   93 1    
    50   24   25 am   BACKBONE|DICT|INTERRES
    51   24   94 1    
    52   25   26 2    
    53   25   27 1    
    54   27   28 1    
    55   27   29 1    
    56   27   95 1    
    57   28   96 1    
    58   28   97 1    
    59   28   98 1    
    60   29   30 am   BACKBONE|DICT|INTERRES
    61   29   99 1    
    62   30   31 2    
    63   30   32 1    
    64   32   33 1    
    65   32   34 1    
    66   32  100 1    
    67   33  101 1    
    68   33  102 1    
    69   33  103 1    
    70   34   35 am   BACKBONE|DICT|INTERRES
    71   34  104 1    
    72   35   36 2    
    73   37   38 2    
    74   37   39 am   BACKBONE|DICT|INTERRES
    75   39   40 1    
    76   39  105 1    
    77   40   41 1    
    78   40   42 1    
    79   40  106 1    
    80   41  107 1    
    81   41  108 1    
    82   41  109 1    
    83   42   43 2    
    84   42   44 am   BACKBONE|DICT|INTERRES
    85   44   45 1    
    86   44  110 1    
    87   45   46 1    
    88   45   47 1    
    89   45  111 1    
    90   46  112 1    
    91   46  113 1    
    92   46  114 1    
    93   47   48 2    
    94   47   49 am   BACKBONE|DICT|INTERRES
    95   49   50 1    
    96   49  115 1    
    97   50   51 1    
    98   50   52 1    
    99   50  116 1    
   100   51  117 1    
   101   51  118 1    
   102   51  119 1    
   103   52   53 2    
   104   52   54 am   BACKBONE|DICT|INTERRES
   105   54   55 1    
   106   54  120 1    
   107   55   56 1    
   108   55   57 1    
   109   55  121 1    
   110   56  122 1    
   111   56  123 1    
   112   56  124 1    
   113   57   58 2    
   114   57   59 am   BACKBONE|DICT|INTERRES
   115   59   60 1    
   116   59  125 1    
   117   60   61 1    
   118   60   62 1    
   119   60  126 1    
   120   61  127 1    
   121   61  128 1    
   122   61  129 1    
   123   62   63 2    
   124   62   64 am   BACKBONE|DICT|INTERRES
   125   64   65 1    
   126   64  130 1    
   127   65   66 1    
   128   65   69 1    
   129   65  131 1    
   130   66   67 am   BACKBONE|DICT|INTERRES
   131   66   68 2    
   132   67  132 1    
   133   67  133 1    
   134   69   70 1    
   135   69  134 1    
   136   69  135 1    
   137   70   71 1    
   138   71  136 1    
   139   71  137 1    
@<TRIPOS>SUBSTRUCTURE
     1 UNK         1 GROUP             0       ****    0 ROOT    
