@<TRIPOS>MOLECULE
3R137
137   139    1
SMALL
USER_CHARGES


@<TRIPOS>ATOM
      1 CA         25.3413   -1.3004    0.9305 C.3       0 UNK        -0.2020 
      2 C          26.6475   -1.1368    0.1699 C.2       0 UNK         0.4855 
      3 O          27.1351   -0.0150    0.0262 O.2       0 UNK        -0.5197 
      4 N          27.2214   -2.2398   -0.3291 N.am      1 UNK        -0.4892 
      5 CA         28.4756   -2.2502   -1.0881 C.3       1 UNK         0.0835 
      6 C6         29.0445   -3.6816   -1.2549 C.3       12 UNK        -0.0855 
      7 S7         28.0054   -4.8378   -2.2210 S.3       12 UNK        -0.2931 
      8 C8         29.2277   -5.6058   -3.3362 C.3       12 UNK         0.0378 
      9 C9         29.7062   -4.6544   -4.4260 C.ar      12 UNK        -0.0802 
     10 C10        30.8894   -3.9294   -4.2608 C.ar      12 UNK        -0.0944 
     11 C11        31.3312   -3.0517   -5.2528 C.ar      12 UNK        -0.0787 
     12 C12        30.6021   -2.9288   -6.4397 C.ar      12 UNK        -0.0862 
     13 C13        29.4291   -3.6679   -6.6305 C.ar      12 UNK        -0.0733 
     14 C14        28.9807   -4.5190   -5.6136 C.ar      12 UNK        -0.0832 
     15 C15        28.6435   -3.5601   -7.9336 C.3       12 UNK         0.0240 
     16 S16        28.0697   -1.8704   -8.3141 S.3       12 UNK        -0.2522 
     17 C17        27.2560   -1.3716   -6.7607 C.3       12 UNK        -0.0967 
     18 CA         25.8037   -1.8853   -6.6084 C.3       5 UNK         0.0660 
     19 N          25.3576   -1.6904   -5.2294 N.am      5 UNK        -0.4015 
     20 C          24.1374   -1.9088   -4.7202 C.2       4 UNK         0.4946 
     21 O          23.2001   -2.4063   -5.3459 O.2       4 UNK        -0.5353 
     22 CA         23.9278   -1.5052   -3.2519 C.3       4 UNK         0.0277 
     23 CB         24.1595   -2.7125   -2.3285 C.3       4 UNK        -0.1981 
     24 N          24.8082   -0.3986   -2.8582 N.am      4 UNK        -0.4209 
     25 C          24.5241    0.8989   -3.0514 C.2       3 UNK         0.4942 
     26 O          23.4485    1.2988   -3.4980 O.2       3 UNK        -0.5208 
     27 CA         25.6032    1.9358   -2.6850 C.3       3 UNK         0.0250 
     28 CB         25.3160    2.5459   -1.3032 C.3       3 UNK        -0.1990 
     29 N          26.9607    1.3815   -2.7062 N.am      3 UNK        -0.4232 
     30 C          27.7005    1.2562   -3.8208 C.2       2 UNK         0.4993 
     31 O          27.3421    1.6762   -4.9199 O.2       2 UNK        -0.5286 
     32 CA         29.0547    0.5214   -3.7129 C.3       2 UNK         0.0209 
     33 CB         30.2072    1.5328   -3.6073 C.3       2 UNK        -0.1931 
     34 N          29.1463   -0.4288   -2.5972 N.am      2 UNK        -0.4546 
     35 C          28.3235   -1.4702   -2.4132 C.2       1 UNK         0.5154 
     36 O          27.4087   -1.7485   -3.1918 O.2       1 UNK        -0.5181 
     37 C          24.8615   -1.2021   -7.6203 C.2       5 UNK         0.5014 
     38 O          24.6904    0.0169   -7.5592 O.2       5 UNK        -0.5248 
     39 N          24.3024   -1.9859   -8.5535 N.am      6 UNK        -0.4434 
     40 CA         23.3981   -1.5091   -9.6074 C.3       6 UNK         0.0363 
     41 CB         22.7997   -2.7139  -10.3511 C.3       6 UNK        -0.1936 
     42 C          24.0682   -0.5419  -10.6001 C.2       6 UNK         0.5081 
     43 O          23.3969    0.3400  -11.1358 O.2       6 UNK        -0.5248 
     44 N          25.3809   -0.7101  -10.8067 N.am      7 UNK        -0.4718 
     45 CA         26.2191    0.1826  -11.6093 C.3       7 UNK         0.0273 
     46 CB         27.4192   -0.6195  -12.1425 C.3       7 UNK        -0.1935 
     47 C          26.7083    1.4167  -10.8269 C.2       7 UNK         0.5018 
     48 O          27.2721    2.3195  -11.4462 O.2       7 UNK        -0.5186 
     49 N          26.5257    1.4210   -9.4946 N.am      8 UNK        -0.4240 
     50 CA         27.0329    2.4019   -8.5240 C.3       8 UNK         0.0235 
     51 CB         26.3093    3.7550   -8.6887 C.3       8 UNK        -0.2000 
     52 C          28.5713    2.5357   -8.5448 C.2       8 UNK         0.4941 
     53 O          29.0985    3.6293   -8.3293 O.2       8 UNK        -0.5273 
     54 N          29.2641    1.4278   -8.8414 N.am      9 UNK        -0.4262 
     55 CA         30.7156    1.3681   -8.9823 C.3       9 UNK         0.0264 
     56 CB         31.0877    0.1359   -9.8237 C.3       9 UNK        -0.1955 
     57 C          31.3989    1.3062   -7.6113 C.2       9 UNK         0.5031 
     58 O          30.9415    0.5682   -6.7369 O.2       9 UNK        -0.5390 
     59 N          32.5057    2.0429   -7.4713 N.am      10 UNK        -0.4204 
     60 CA         33.4074    1.9627   -6.3249 C.3       10 UNK         0.0237 
     61 CB         34.0269    3.3459   -6.0664 C.3       10 UNK        -0.1985 
     62 C          34.4994    0.9248   -6.6177 C.2       10 UNK         0.4970 
     63 O          34.9952    0.8671   -7.7458 O.2       10 UNK        -0.4914 
     64 N          34.8621    0.1473   -5.5941 N.am      11 UNK        -0.4285 
     65 CA         35.8894   -0.9055   -5.6598 C.3       11 UNK         0.1007 
     66 C          37.2891   -0.4363   -5.1641 C.2       11 UNK         0.5703 
     67 N          37.4634    0.8056   -4.7260 N.am      11 UNK        -0.7361 
     68 O          38.2441   -1.2090   -5.1945 O.2       11 UNK        -0.4986 
     69 C69        35.4165   -2.1876   -4.9233 C.3       12 UNK        -0.0947 
     70 S70        34.0408   -3.0291   -5.7789 S.3       12 UNK        -0.2240 
     71 C71        32.5903   -2.2318   -5.0272 C.3       12 UNK         0.0194 
     72 H72        25.4494   -0.9168    1.9446 H         1 UNK         0.0906 
     73 H73        24.5478   -0.7389    0.4380 H         1 UNK         0.0906 
     74 H74        25.0340   -2.3440    0.9945 H         1 UNK         0.0906 
     75 H75        26.7713   -3.1386   -0.2268 H         1 UNK         0.3140 
     76 H76        29.1990   -1.7069   -0.4754 H         1 UNK         0.1085 
     77 H77        30.0433   -3.6247   -1.6823 H         1 UNK         0.0836 
     78 H78        29.1908   -4.1251   -0.2687 H         1 UNK         0.0836 
     79 H79        30.0720   -5.9746   -2.7514 H         1 UNK         0.0731 
     80 H80        28.7749   -6.4857   -3.7957 H         1 UNK         0.0731 
     81 H81        31.4709   -4.0428   -3.3568 H         1 UNK         0.1312 
     82 H82        30.9439   -2.2520   -7.2111 H         1 UNK         0.1406 
     83 H83        28.0688   -5.0855   -5.7455 H         1 UNK         0.1631 
     84 H84        27.7769   -4.2225   -7.9174 H         1 UNK         0.0717 
     85 H85        29.2739   -3.9059   -8.7538 H         1 UNK         0.0717 
     86 H86        27.8638   -1.7089   -5.9212 H         1 UNK         0.0934 
     87 H87        27.2857   -0.2826   -6.7028 H         1 UNK         0.0934 
     88 H88        25.7946   -2.9626   -6.7833 H         1 UNK         0.0739 
     89 H89        26.0762   -1.3894   -4.5797 H         1 UNK         0.3093 
     90 H90        22.8867   -1.1938   -3.1415 H         1 UNK         0.0818 
     91 H91        25.1927   -3.0601   -2.3622 H         1 UNK         0.0819 
     92 H92        23.9126   -2.4736   -1.2955 H         1 UNK         0.0819 
     93 H93        23.5272   -3.5520   -2.6208 H         1 UNK         0.0819 
     94 H94        25.7382   -0.6539   -2.5491 H         1 UNK         0.3041 
     95 H95        25.5423    2.7418   -3.4199 H         1 UNK         0.0784 
     96 H96        24.3453    3.0435   -1.2939 H         1 UNK         0.0793 
     97 H97        25.2975    1.7898   -0.5185 H         1 UNK         0.0793 
     98 H98        26.0641    3.2918   -1.0343 H         1 UNK         0.0793 
     99 H99        27.3122    1.0074   -1.8307 H         1 UNK         0.3024 
    100 H100       29.1866   -0.0457   -4.6377 H         1 UNK         0.1171 
    101 H101       30.1908    2.2277   -4.4486 H         1 UNK         0.0786 
    102 H102       31.1749    1.0316   -3.6273 H         1 UNK         0.0786 
    103 H103       30.1476    2.1231   -2.6921 H         1 UNK         0.0786 
    104 H104       29.8488   -0.2316   -1.8991 H         1 UNK         0.2977 
    105 H105       24.4871   -2.9789   -8.5323 H         1 UNK         0.3127 
    106 H106       22.5830   -0.9662   -9.1237 H         1 UNK         0.0770 
    107 H107       23.5701   -3.3124  -10.8390 H         1 UNK         0.0814 
    108 H108       22.1033   -2.3870  -11.1248 H         1 UNK         0.0814 
    109 H109       22.2454   -3.3639   -9.6739 H         1 UNK         0.0814 
    110 H110       25.8487   -1.4683  -10.3301 H         1 UNK         0.2983 
    111 H111       25.6428    0.5456  -12.4634 H         1 UNK         0.0947 
    112 H112       28.0511   -0.0003  -12.7810 H         1 UNK         0.0806 
    113 H113       27.0937   -1.4702  -12.7413 H         1 UNK         0.0806 
    114 H114       28.0467   -0.9974  -11.3345 H         1 UNK         0.0806 
    115 H115       25.9885    0.6640   -9.0875 H         1 UNK         0.3000 
    116 H116       26.7769    2.0130   -7.5377 H         1 UNK         0.0850 
    117 H117       26.5815    4.4431   -7.8874 H         1 UNK         0.0810 
    118 H118       25.2270    3.6311   -8.6533 H         1 UNK         0.0810 
    119 H119       26.5629    4.2377   -9.6330 H         1 UNK         0.0810 
    120 H120       28.7664    0.5540   -8.9351 H         1 UNK         0.3040 
    121 H121       31.0502    2.2618   -9.5139 H         1 UNK         0.0766 
    122 H122       30.6197    0.1701  -10.8077 H         1 UNK         0.0812 
    123 H123       30.7823   -0.7921   -9.3386 H         1 UNK         0.0812 
    124 H124       32.1662    0.0808   -9.9783 H         1 UNK         0.0812 
    125 H125       32.8426    2.5708   -8.2639 H         1 UNK         0.3205 
    126 H126       32.8491    1.6630   -5.4354 H         1 UNK         0.0754 
    127 H127       34.6851    3.3238   -5.1969 H         1 UNK         0.0769 
    128 H128       33.2571    4.0925   -5.8693 H         1 UNK         0.0769 
    129 H129       34.6188    3.6914   -6.9153 H         1 UNK         0.0769 
    130 H130       34.4322    0.2848   -4.6916 H         1 UNK         0.2981 
    131 H131       36.0474   -1.1801   -6.7044 H         1 UNK         0.0541 
    132 H132       36.6971    1.4582   -4.7106 H         1 UNK         0.3459 
    133 H133       38.3783    1.0938   -4.4162 H         1 UNK         0.3459 
    134 H134       36.2265   -2.9168   -4.8633 H         1 UNK         0.0612 
    135 H135       35.1376   -1.9669   -3.8917 H         1 UNK         0.0612 
    136 H136       32.4601   -1.2368   -5.4522 H         1 UNK         0.0624 
    137 H137       32.7566   -2.0923   -3.9581 H         1 UNK         0.0624 
@<TRIPOS>BOND
     1    1    2 1    
     2    1   72 1    
     3    1   73 1    
     4    1   74 1    
     5    2    3 2    
     6    2    4 am   BACKBONE|DICT|INTERRES
     7    4    5 1    
     8    4   75 1    
     9    5    6 1    
    10    5   35 1    
    11    5   76 1    
    12    6    7 1    
    13    6   77 1    
    14    6   78 1    
    15    7    8 1    
    16    8    9 1    
    17    8   79 1    
    18    8   80 1    
    19    9   10 ar   
    20    9   14 ar   
    21   10   11 ar   
    22   10   81 1    
    23   11   12 ar   
    24   11   71 1    
    25   12   13 ar   
    26   12   82 1    
    27   13   14 ar   
    28   13   15 1    
    29   14   83 1    
    30   15   16 1    
    31   15   84 1    
    32   15   85 1    
    33   16   17 1    
    34   17   18 1    
    35   17   86 1    
    36   17   87 1    
    37   18   19 1    
    38   18   37 1    
    39   18   88 1    
    40   19   20 am   BACKBONE|DICT|INTERRES
    41   19   89 1    
    42   20   21 2    
    43   20   22 1    
    44   22   23 1    
    45   22   24 1    
    46   22   90 1    
    47   23   91 1    
    48   23   92 1    
    49   23   93 1    
    50   24   25 am   BACKBONE|DICT|INTERRES
    51   24   94 1    
    52   25   26 2    
    53   25   27 1    
    54   27   28 1    
    55   27   29 1    
    56   27   95 1    
    57   28   96 1    
    58   28   97 1    
    59   28   98 1    
    60   29   30 am   BACKBONE|DICT|INTERRES
    61   29   99 1    
    62   30   31 2    
    63   30   32 1    
    64   32   33 1    
    65   32   34 1    
    66   32  100 1    
    67   33  101 1    
    68   33  102 1    
    69   33  103 1    
    70   34   35 am   BACKBONE|DICT|INTERRES
    71   34  104 1    
    72   35   36 2    
    73   37   38 2    
    74   37   39 am   BACKBONE|DICT|INTERRES
    75   39   40 1    
    76   39  105 1    
    77   40   41 1    
    78   40   42 1    
    79   40  106 1    
    80   41  107 1    
    81   41  108 1    
    82   41  109 1    
    83   42   43 2    
    84   42   44 am   BACKBONE|DICT|INTERRES
    85   44   45 1    
    86   44  110 1    
    87   45   46 1    
    88   45   47 1    
    89   45  111 1    
    90   46  112 1    
    91   46  113 1    
    92   46  114 1    
    93   47   48 2    
    94   47   49 am   BACKBONE|DICT|INTERRES
    95   49   50 1    
    96   49  115 1    
    97   50   51 1    
    98   50   52 1    
    99   50  116 1    
   100   51  117 1    
   101   51  118 1    
   102   51  119 1    
   103   52   53 2    
   104   52   54 am   BACKBONE|DICT|INTERRES
   105   54   55 1    
   106   54  120 1    
   107   55   56 1    
   108   55   57 1    
   109   55  121 1    
   110   56  122 1    
   111   56  123 1    
   112   56  124 1    
   113   57   58 2    
   114   57   59 am   BACKBONE|DICT|INTERRES
   115   59   60 1    
   116   59  125 1    
   117   60   61 1    
   118   60   62 1    
   119   60  126 1    
   120   61  127 1    
   121   61  128 1    
   122   61  129 1    
   123   62   63 2    
   124   62   64 am   BACKBONE|DICT|INTERRES
   125   64   65 1    
   126   64  130 1    
   127   65   66 1    
   128   65   69 1    
   129   65  131 1    
   130   66   67 am   BACKBONE|DICT|INTERRES
   131   66   68 2    
   132   67  132 1    
   133   67  133 1    
   134   69   70 1    
   135   69  134 1    
   136   69  135 1    
   137   70   71 1    
   138   71  136 1    
   139   71  137 1    
@<TRIPOS>SUBSTRUCTURE
     1 UNK         1 GROUP             0       ****    0 ROOT    
