@<TRIPOS>MOLECULE
3R137
137   139    1
SMALL
USER_CHARGES


@<TRIPOS>ATOM
      1 CA         31.4297    0.8692   -0.3526 C.3       0 UNK        -0.2020 
      2 C          30.4148   -0.2462   -0.1615 C.2       0 UNK         0.4855 
      3 O          29.9476   -0.4589    0.9580 O.2       0 UNK        -0.5197 
      4 N          30.0959   -0.9627   -1.2493 N.am      1 UNK        -0.4892 
      5 CA         29.1277   -2.0666   -1.3335 C.3       1 UNK         0.0835 
      6 C6         29.4167   -3.1948   -0.3035 C.3       12 UNK        -0.0855 
      7 S7         28.8539   -4.8410   -0.8499 S.3       12 UNK        -0.2931 
      8 C8         30.3780   -5.5286   -1.5677 C.3       12 UNK         0.0378 
      9 C9         30.6295   -5.0109   -2.9769 C.ar      12 UNK        -0.0802 
     10 C10        31.6968   -4.1460   -3.2449 C.ar      12 UNK        -0.0944 
     11 C11        31.9754   -3.7467   -4.5575 C.ar      12 UNK        -0.0787 
     12 C12        31.1665   -4.2146   -5.5994 C.ar      12 UNK        -0.0862 
     13 C13        30.0790   -5.0548   -5.3409 C.ar      12 UNK        -0.0733 
     14 C14        29.8184   -5.4501   -4.0270 C.ar      12 UNK        -0.0832 
     15 C15        29.2198   -5.5882   -6.4807 C.3       12 UNK         0.0240 
     16 S16        28.5911   -4.2774   -7.5748 S.3       12 UNK        -0.2522 
     17 C17        27.3952   -3.4259   -6.4935 C.3       12 UNK        -0.0967 
     18 CA         26.8832   -2.1267   -7.1633 C.3       5 UNK         0.0660 
     19 N          25.4946   -1.8186   -6.8121 N.am      5 UNK        -0.4015 
     20 C          24.6912   -1.0399   -7.5506 C.2       4 UNK         0.4946 
     21 O          25.0388   -0.4966   -8.5992 O.2       4 UNK        -0.5353 
     22 CA         23.2703   -0.8000   -7.0152 C.3       4 UNK         0.0277 
     23 CB         22.3831   -2.0347   -7.2429 C.3       4 UNK        -0.1981 
     24 N          23.2554   -0.4314   -5.5986 N.am      4 UNK        -0.4209 
     25 C          23.7770    0.7032   -5.1123 C.2       3 UNK         0.4942 
     26 O          24.2935    1.5758   -5.8109 O.2       3 UNK        -0.5208 
     27 CA         23.7439    0.8870   -3.5845 C.3       3 UNK         0.0250 
     28 CB         22.3913    1.4741   -3.1491 C.3       3 UNK        -0.1990 
     29 N          24.0368   -0.3100   -2.7811 N.am      3 UNK        -0.4232 
     30 C          25.0661   -1.1532   -2.9496 C.2       2 UNK         0.4993 
     31 O          25.8049   -1.1622   -3.9360 O.2       2 UNK        -0.5286 
     32 CA         25.3045   -2.1850   -1.8355 C.3       2 UNK         0.0209 
     33 CB         24.5707   -3.4964   -2.1584 C.3       2 UNK        -0.1931 
     34 N          26.7333   -2.4682   -1.6656 N.am      2 UNK        -0.4546 
     35 C          27.6606   -1.5750   -1.2924 C.2       1 UNK         0.5154 
     36 O          27.3863   -0.4209   -0.9513 O.2       1 UNK        -0.5181 
     37 C          27.8132   -0.9276   -6.9014 C.2       5 UNK         0.5014 
     38 O          28.7227   -0.6853   -7.6940 O.2       5 UNK        -0.5248 
     39 N          27.5367   -0.1565   -5.8395 N.am      6 UNK        -0.4434 
     40 CA         28.2098    1.1049   -5.5235 C.3       6 UNK         0.0363 
     41 CB         27.6624    1.6768   -4.2086 C.3       6 UNK        -0.1936 
     42 C          28.1153    2.1408   -6.6558 C.2       6 UNK         0.5081 
     43 O          29.0807    2.8717   -6.8760 O.2       6 UNK        -0.5248 
     44 N          26.9848    2.1502   -7.3739 N.am      7 UNK        -0.4718 
     45 CA         26.8074    2.8931   -8.6169 C.3       7 UNK         0.0273 
     46 CB         25.3085    3.1295   -8.8685 C.3       7 UNK        -0.1935 
     47 C          27.4713    2.1754   -9.8048 C.2       7 UNK         0.5018 
     48 O          28.3403    2.7631  -10.4486 O.2       7 UNK        -0.5186 
     49 N          27.0479    0.9324  -10.0853 N.am      8 UNK        -0.4240 
     50 CA         27.4014    0.1841  -11.2987 C.3       8 UNK         0.0235 
     51 CB         26.5511   -1.0930  -11.3907 C.3       8 UNK        -0.2000 
     52 C          28.8935   -0.1561  -11.4472 C.2       8 UNK         0.4941 
     53 O          29.4271   -0.0282  -12.5500 O.2       8 UNK        -0.5273 
     54 N          29.5399   -0.5776  -10.3533 N.am      9 UNK        -0.4262 
     55 CA         30.9680   -0.9072  -10.3076 C.3       9 UNK         0.0264 
     56 CB         31.1687   -2.1490   -9.4202 C.3       9 UNK        -0.1955 
     57 C          31.8215    0.2709   -9.8048 C.2       9 UNK         0.5031 
     58 O          33.0427    0.1296   -9.7292 O.2       9 UNK        -0.5390 
     59 N          31.1764    1.3986   -9.4646 N.am      10 UNK        -0.4204 
     60 CA         31.7541    2.6295   -8.9119 C.3       10 UNK         0.0237 
     61 CB         32.6904    3.3100   -9.9340 C.3       10 UNK        -0.1985 
     62 C          32.4110    2.4398   -7.5279 C.2       10 UNK         0.4970 
     63 O          33.3186    3.1971   -7.1783 O.2       10 UNK        -0.4914 
     64 N          31.9393    1.4483   -6.7585 N.am      11 UNK        -0.4285 
     65 CA         32.3972    1.1631   -5.3886 C.3       11 UNK         0.1007 
     66 C          31.9320    2.2017   -4.3267 C.2       11 UNK         0.5703 
     67 N          30.9813    3.0828   -4.6161 N.am      11 UNK        -0.7361 
     68 O          32.4602    2.2168   -3.2189 O.2       11 UNK        -0.4986 
     69 C69        32.0609   -0.2894   -4.9513 C.3       12 UNK        -0.0947 
     70 S70        32.8711   -1.5213   -6.0208 S.3       12 UNK        -0.2240 
     71 C71        33.1998   -2.8841   -4.8533 C.3       12 UNK         0.0194 
     72 H72        30.9357    1.7756   -0.7018 H         1 UNK         0.0906 
     73 H73        31.9341    1.0955    0.5865 H         1 UNK         0.0906 
     74 H74        32.1914    0.5879   -1.0795 H         1 UNK         0.0906 
     75 H75        30.5076   -0.6977   -2.1322 H         1 UNK         0.3140 
     76 H76        29.2761   -2.4756   -2.3347 H         1 UNK         0.1085 
     77 H77        30.4873   -3.2534   -0.1017 H         1 UNK         0.0836 
     78 H78        28.9557   -2.9707    0.6604 H         1 UNK         0.0836 
     79 H79        31.2274   -5.3253   -0.9137 H         1 UNK         0.0731 
     80 H80        30.2837   -6.6150   -1.6041 H         1 UNK         0.0731 
     81 H81        32.3326   -3.8136   -2.4356 H         1 UNK         0.1312 
     82 H82        31.3884   -3.9320   -6.6195 H         1 UNK         0.1406 
     83 H83        28.9967   -6.1222   -3.8179 H         1 UNK         0.1631 
     84 H84        28.3747   -6.1646   -6.1010 H         1 UNK         0.0717 
     85 H85        29.8210   -6.2780   -7.0744 H         1 UNK         0.0717 
     86 H86        26.5699   -4.1191   -6.3231 H         1 UNK         0.0934 
     87 H87        27.8355   -3.2330   -5.5125 H         1 UNK         0.0934 
     88 H88        26.8870   -2.2874   -8.2434 H         1 UNK         0.0739 
     89 H89        25.1747   -2.1317   -5.9057 H         1 UNK         0.3093 
     90 H90        22.8437    0.0316   -7.5806 H         1 UNK         0.0818 
     91 H91        21.3499   -1.8381   -6.9557 H         1 UNK         0.0819 
     92 H92        22.3753   -2.3190   -8.2962 H         1 UNK         0.0819 
     93 H93        22.7306   -2.8985   -6.6749 H         1 UNK         0.0819 
     94 H94        22.8539   -1.0924   -4.9496 H         1 UNK         0.3041 
     95 H95        24.5142    1.6189   -3.3371 H         1 UNK         0.0784 
     96 H96        22.1548    2.3755   -3.7167 H         1 UNK         0.0793 
     97 H97        21.5749    0.7677   -3.3044 H         1 UNK         0.0793 
     98 H98        22.3988    1.7529   -2.0952 H         1 UNK         0.0793 
     99 H99        23.4710   -0.4210   -1.9518 H         1 UNK         0.3024 
    100 H100       24.9276   -1.7832   -0.8924 H         1 UNK         0.1171 
    101 H101       23.4976   -3.3308   -2.2633 H         1 UNK         0.0786 
    102 H102       24.7068   -4.2327   -1.3659 H         1 UNK         0.0786 
    103 H103       24.9256   -3.9381   -3.0908 H         1 UNK         0.0786 
    104 H104       27.0425   -3.3985   -1.9119 H         1 UNK         0.2977 
    105 H105       26.8027   -0.4580   -5.1971 H         1 UNK         0.3127 
    106 H106       29.2642    0.8783   -5.3802 H         1 UNK         0.0770 
    107 H107       26.6115    1.9472   -4.2990 H         1 UNK         0.0814 
    108 H108       28.2043    2.5773   -3.9181 H         1 UNK         0.0814 
    109 H109       27.7587    0.9623   -3.3911 H         1 UNK         0.0814 
    110 H110       26.2230    1.5481   -7.0861 H         1 UNK         0.2983 
    111 H111       27.2847    3.8702   -8.5113 H         1 UNK         0.0947 
    112 H112       25.1497    3.6767   -9.7986 H         1 UNK         0.0806 
    113 H113       24.8640    3.7180   -8.0656 H         1 UNK         0.0806 
    114 H114       24.7507    2.1952   -8.9383 H         1 UNK         0.0806 
    115 H115       26.3382    0.5088   -9.4898 H         1 UNK         0.3000 
    116 H116       27.1350    0.8182  -12.1471 H         1 UNK         0.0850 
    117 H117       26.7627   -1.6390  -12.3111 H         1 UNK         0.0810 
    118 H118       25.4857   -0.8618  -11.3896 H         1 UNK         0.0810 
    119 H119       26.7472   -1.7691  -10.5586 H         1 UNK         0.0810 
    120 H120       29.0461   -0.6355   -9.4620 H         1 UNK         0.3040 
    121 H121       31.3241   -1.1554  -11.3095 H         1 UNK         0.0766 
    122 H122       32.2128   -2.4640   -9.4163 H         1 UNK         0.0812 
    123 H123       30.5774   -2.9921   -9.7770 H         1 UNK         0.0812 
    124 H124       30.8871   -1.9586   -8.3845 H         1 UNK         0.0812 
    125 H125       30.1728    1.4145   -9.5925 H         1 UNK         0.3205 
    126 H126       30.9124    3.3042   -8.7515 H         1 UNK         0.0754 
    127 H127       32.9915    4.3005   -9.5907 H         1 UNK         0.0769 
    128 H128       32.1970    3.4399  -10.8973 H         1 UNK         0.0769 
    129 H129       33.6011    2.7330  -10.0975 H         1 UNK         0.0769 
    130 H130       31.1943    0.8688   -7.1151 H         1 UNK         0.2981 
    131 H131       33.4860    1.2431   -5.3991 H         1 UNK         0.0541 
    132 H132       30.5186    3.0777   -5.5185 H         1 UNK         0.3459 
    133 H133       30.7150    3.7587   -3.9191 H         1 UNK         0.3459 
    134 H134       30.9876   -0.4766   -4.9684 H         1 UNK         0.0612 
    135 H135       32.3858   -0.4596   -3.9235 H         1 UNK         0.0612 
    136 H136       33.9671   -3.5255   -5.2881 H         1 UNK         0.0624 
    137 H137       33.6271   -2.4782   -3.9352 H         1 UNK         0.0624 
@<TRIPOS>BOND
     1    1    2 1    
     2    1   72 1    
     3    1   73 1    
     4    1   74 1    
     5    2    3 2    
     6    2    4 am   BACKBONE|DICT|INTERRES
     7    4    5 1    
     8    4   75 1    
     9    5    6 1    
    10    5   35 1    
    11    5   76 1    
    12    6    7 1    
    13    6   77 1    
    14    6   78 1    
    15    7    8 1    
    16    8    9 1    
    17    8   79 1    
    18    8   80 1    
    19    9   10 ar   
    20    9   14 ar   
    21   10   11 ar   
    22   10   81 1    
    23   11   12 ar   
    24   11   71 1    
    25   12   13 ar   
    26   12   82 1    
    27   13   14 ar   
    28   13   15 1    
    29   14   83 1    
    30   15   16 1    
    31   15   84 1    
    32   15   85 1    
    33   16   17 1    
    34   17   18 1    
    35   17   86 1    
    36   17   87 1    
    37   18   19 1    
    38   18   37 1    
    39   18   88 1    
    40   19   20 am   BACKBONE|DICT|INTERRES
    41   19   89 1    
    42   20   21 2    
    43   20   22 1    
    44   22   23 1    
    45   22   24 1    
    46   22   90 1    
    47   23   91 1    
    48   23   92 1    
    49   23   93 1    
    50   24   25 am   BACKBONE|DICT|INTERRES
    51   24   94 1    
    52   25   26 2    
    53   25   27 1    
    54   27   28 1    
    55   27   29 1    
    56   27   95 1    
    57   28   96 1    
    58   28   97 1    
    59   28   98 1    
    60   29   30 am   BACKBONE|DICT|INTERRES
    61   29   99 1    
    62   30   31 2    
    63   30   32 1    
    64   32   33 1    
    65   32   34 1    
    66   32  100 1    
    67   33  101 1    
    68   33  102 1    
    69   33  103 1    
    70   34   35 am   BACKBONE|DICT|INTERRES
    71   34  104 1    
    72   35   36 2    
    73   37   38 2    
    74   37   39 am   BACKBONE|DICT|INTERRES
    75   39   40 1    
    76   39  105 1    
    77   40   41 1    
    78   40   42 1    
    79   40  106 1    
    80   41  107 1    
    81   41  108 1    
    82   41  109 1    
    83   42   43 2    
    84   42   44 am   BACKBONE|DICT|INTERRES
    85   44   45 1    
    86   44  110 1    
    87   45   46 1    
    88   45   47 1    
    89   45  111 1    
    90   46  112 1    
    91   46  113 1    
    92   46  114 1    
    93   47   48 2    
    94   47   49 am   BACKBONE|DICT|INTERRES
    95   49   50 1    
    96   49  115 1    
    97   50   51 1    
    98   50   52 1    
    99   50  116 1    
   100   51  117 1    
   101   51  118 1    
   102   51  119 1    
   103   52   53 2    
   104   52   54 am   BACKBONE|DICT|INTERRES
   105   54   55 1    
   106   54  120 1    
   107   55   56 1    
   108   55   57 1    
   109   55  121 1    
   110   56  122 1    
   111   56  123 1    
   112   56  124 1    
   113   57   58 2    
   114   57   59 am   BACKBONE|DICT|INTERRES
   115   59   60 1    
   116   59  125 1    
   117   60   61 1    
   118   60   62 1    
   119   60  126 1    
   120   61  127 1    
   121   61  128 1    
   122   61  129 1    
   123   62   63 2    
   124   62   64 am   BACKBONE|DICT|INTERRES
   125   64   65 1    
   126   64  130 1    
   127   65   66 1    
   128   65   69 1    
   129   65  131 1    
   130   66   67 am   BACKBONE|DICT|INTERRES
   131   66   68 2    
   132   67  132 1    
   133   67  133 1    
   134   69   70 1    
   135   69  134 1    
   136   69  135 1    
   137   70   71 1    
   138   71  136 1    
   139   71  137 1    
@<TRIPOS>SUBSTRUCTURE
     1 UNK         1 GROUP             0       ****    0 ROOT    
