@<TRIPOS>MOLECULE
3R137
137   139    1
SMALL
USER_CHARGES


@<TRIPOS>ATOM
      1 CA         29.2645    1.1825    1.9410 C.3       0 UNK        -0.2020 
      2 C          29.0184   -0.3173    2.0808 C.2       0 UNK         0.4855 
      3 O          28.8595   -0.8015    3.1993 O.2       0 UNK        -0.5197 
      4 N          28.9795   -1.0957    0.9899 N.am      1 UNK        -0.4892 
      5 CA         29.1031   -0.6747   -0.4138 C.3       1 UNK         0.0835 
      6 C6         29.5612   -1.8508   -1.3124 C.3       12 UNK        -0.0855 
      7 S7         28.4382   -3.2943   -1.2898 S.3       12 UNK        -0.2931 
      8 C8         29.5319   -4.6046   -1.9228 C.3       12 UNK         0.0378 
      9 C9         29.7291   -4.4979   -3.4282 C.ar      12 UNK        -0.0802 
     10 C10        30.8117   -3.7867   -3.9535 C.ar      12 UNK        -0.0944 
     11 C11        30.9937   -3.6836   -5.3369 C.ar      12 UNK        -0.0787 
     12 C12        30.0911   -4.3205   -6.1979 C.ar      12 UNK        -0.0862 
     13 C13        29.0204   -5.0602   -5.6823 C.ar      12 UNK        -0.0733 
     14 C14        28.8385   -5.1330   -4.2980 C.ar      12 UNK        -0.0832 
     15 C15        28.0928   -5.8399   -6.6042 C.3       12 UNK         0.0240 
     16 S16        26.4640   -5.0434   -6.7890 S.3       12 UNK        -0.2522 
     17 C17        26.4909   -4.4666   -8.5263 C.3       12 UNK        -0.0967 
     18 CA         26.2812   -2.9424   -8.6931 C.3       5 UNK         0.0660 
     19 N          25.0519   -2.4723   -8.0507 N.am      5 UNK        -0.4015 
     20 C          24.5115   -1.2597   -8.2331 C.2       4 UNK         0.4946 
     21 O          24.9549   -0.4222   -9.0184 O.2       4 UNK        -0.5353 
     22 CA         23.3045   -0.9047   -7.3493 C.3       4 UNK         0.0277 
     23 CB         22.0014   -1.4282   -7.9737 C.3       4 UNK        -0.1981 
     24 N          23.4355   -1.4055   -5.9756 N.am      4 UNK        -0.4209 
     25 C          24.3819   -1.0030   -5.1170 C.2       3 UNK         0.4942 
     26 O          25.2448   -0.1658   -5.3916 O.2       3 UNK        -0.5208 
     27 CA         24.3967   -1.6792   -3.7437 C.3       3 UNK         0.0250 
     28 CB         25.2110   -2.9857   -3.7815 C.3       3 UNK        -0.1990 
     29 N          24.9877   -0.7623   -2.7734 N.am      3 UNK        -0.4232 
     30 C          24.6522   -0.6900   -1.4817 C.2       2 UNK         0.4993 
     31 O          23.8286   -1.4338   -0.9442 O.2       2 UNK        -0.5286 
     32 CA         25.3883    0.3665   -0.6439 C.3       2 UNK         0.0209 
     33 CB         24.6137    0.7539    0.6301 C.3       2 UNK        -0.1931 
     34 N          26.6970   -0.1546   -0.2581 N.am      2 UNK        -0.4546 
     35 C          27.8251    0.0008   -0.9629 C.2       1 UNK         0.5154 
     36 O          27.8873    0.6625   -1.9991 O.2       1 UNK        -0.5181 
     37 C          27.5174   -2.1394   -8.2465 C.2       5 UNK         0.5014 
     38 O          28.3738   -1.8436   -9.0788 O.2       5 UNK        -0.5248 
     39 N          27.5701   -1.7691   -6.9597 N.am      6 UNK        -0.4434 
     40 CA         28.6300   -0.9455   -6.3844 C.3       6 UNK         0.0363 
     41 CB         28.5428   -0.9722   -4.8538 C.3       6 UNK        -0.1936 
     42 C          28.5912    0.4939   -6.9085 C.2       6 UNK         0.5081 
     43 O          29.6411    1.0444   -7.2396 O.2       6 UNK        -0.5248 
     44 N          27.3801    1.0572   -7.0199 N.am      7 UNK        -0.4718 
     45 CA         27.1235    2.3637   -7.6270 C.3       7 UNK         0.0273 
     46 CB         25.6561    2.7590   -7.3991 C.3       7 UNK        -0.1935 
     47 C          27.4800    2.4003   -9.1231 C.2       7 UNK         0.5018 
     48 O          28.0747    3.3801   -9.5722 O.2       7 UNK        -0.5186 
     49 N          27.1429    1.3277   -9.8556 N.am      8 UNK        -0.4240 
     50 CA         27.4959    1.1398  -11.2654 C.3       8 UNK         0.0235 
     51 CB         26.7269   -0.0599  -11.8416 C.3       8 UNK        -0.2000 
     52 C          29.0096    0.9758  -11.4856 C.2       8 UNK         0.4941 
     53 O          29.5515    1.5856  -12.4085 O.2       8 UNK        -0.5273 
     54 N          29.6662    0.1728  -10.6349 N.am      9 UNK        -0.4262 
     55 CA         31.1180   -0.0331  -10.6394 C.3       9 UNK         0.0264 
     56 CB         31.4673   -1.2325   -9.7411 C.3       9 UNK        -0.1955 
     57 C          31.9118    1.2053  -10.1892 C.2       9 UNK         0.5031 
     58 O          33.0479    1.3792  -10.6323 O.2       9 UNK        -0.5390 
     59 N          31.3112    2.0136   -9.3024 N.am      10 UNK        -0.4204 
     60 CA         31.8911    3.1583   -8.5923 C.3       10 UNK         0.0237 
     61 CB         32.2628    4.2963   -9.5667 C.3       10 UNK        -0.1985 
     62 C          33.0510    2.7312   -7.6714 C.2       10 UNK         0.4970 
     63 O          34.0598    3.4334   -7.5808 O.2       10 UNK        -0.4914 
     64 N          32.8880    1.5725   -7.0183 N.am      11 UNK        -0.4285 
     65 CA         33.8919    0.9554   -6.1380 C.3       11 UNK         0.1007 
     66 C          34.0018    1.5861   -4.7182 C.2       11 UNK         0.5703 
     67 N          33.1073    2.4816   -4.3156 N.am      11 UNK        -0.7361 
     68 O          34.9286    1.2696   -3.9759 O.2       11 UNK        -0.4986 
     69 C69        33.7413   -0.5890   -6.0995 C.3       12 UNK        -0.0947 
     70 S70        32.1433   -1.1562   -5.4316 S.3       12 UNK        -0.2240 
     71 C71        32.1880   -2.9164   -5.8918 C.3       12 UNK         0.0194 
     72 H72        30.2174    1.3790    1.4509 H         1 UNK         0.0906 
     73 H73        28.4678    1.6619    1.3736 H         1 UNK         0.0906 
     74 H74        29.2979    1.6550    2.9226 H         1 UNK         0.0906 
     75 H75        28.8211   -2.0869    1.1118 H         1 UNK         0.3140 
     76 H76        29.8875    0.0821   -0.4735 H         1 UNK         0.1085 
     77 H77        29.6930   -1.5192   -2.3420 H         1 UNK         0.0836 
     78 H78        30.5500   -2.1778   -0.9871 H         1 UNK         0.0836 
     79 H79        30.4922   -4.5716   -1.4058 H         1 UNK         0.0731 
     80 H80        29.0930   -5.5731   -1.6784 H         1 UNK         0.0731 
     81 H81        31.5113   -3.3024   -3.2862 H         1 UNK         0.1312 
     82 H82        30.2339   -4.2593   -7.2682 H         1 UNK         0.1406 
     83 H83        28.0077   -5.6979   -3.8968 H         1 UNK         0.1631 
     84 H84        27.9374   -6.8358   -6.1868 H         1 UNK         0.0717 
     85 H85        28.5645   -6.0032   -7.5735 H         1 UNK         0.0717 
     86 H86        27.4122   -4.7740   -9.0241 H         1 UNK         0.0934 
     87 H87        25.6958   -4.9952   -9.0544 H         1 UNK         0.0934 
     88 H88        26.1651   -2.7533   -9.7626 H         1 UNK         0.0739 
     89 H89        24.6273   -3.1030   -7.3867 H         1 UNK         0.3093 
     90 H90        23.2450    0.1849   -7.3011 H         1 UNK         0.0818 
     91 H91        21.1302   -1.1029   -7.4047 H         1 UNK         0.0819 
     92 H92        21.8793   -1.0524   -8.9908 H         1 UNK         0.0819 
     93 H93        21.9825   -2.5175   -8.0247 H         1 UNK         0.0819 
     94 H94        22.7616   -2.0959   -5.6752 H         1 UNK         0.3041 
     95 H95        23.3653   -1.8996   -3.4594 H         1 UNK         0.0784 
     96 H96        24.7862   -3.6963   -4.4911 H         1 UNK         0.0793 
     97 H97        26.2479   -2.8114   -4.0707 H         1 UNK         0.0793 
     98 H98        25.2212   -3.4728   -2.8061 H         1 UNK         0.0793 
     99 H99        25.6602   -0.1099   -3.1598 H         1 UNK         0.3024 
    100 H100       25.5029    1.2673   -1.2520 H         1 UNK         0.1171 
    101 H101       23.6197    1.1286    0.3823 H         1 UNK         0.0786 
    102 H102       25.1286    1.5414    1.1807 H         1 UNK         0.0786 
    103 H103       24.4846   -0.0942    1.3038 H         1 UNK         0.0786 
    104 H104       26.7268   -0.7527    0.5555 H         1 UNK         0.2977 
    105 H105       26.8153   -2.0353   -6.3465 H         1 UNK         0.3127 
    106 H106       29.5818   -1.3834   -6.6855 H         1 UNK         0.0770 
    107 H107       27.6205   -0.5277   -4.4843 H         1 UNK         0.0814 
    108 H108       29.3659   -0.4089   -4.4137 H         1 UNK         0.0814 
    109 H109       28.6001   -1.9903   -4.4718 H         1 UNK         0.0814 
    110 H110       26.5763    0.5489   -6.6611 H         1 UNK         0.2983 
    111 H111       27.7573    3.0937   -7.1188 H         1 UNK         0.0947 
    112 H112       25.4519    3.7506   -7.8052 H         1 UNK         0.0806 
    113 H113       25.4136    2.7859   -6.3365 H         1 UNK         0.0806 
    114 H114       24.9695    2.0617   -7.8796 H         1 UNK         0.0806 
    115 H115       26.5829    0.5989   -9.4211 H         1 UNK         0.3000 
    116 H116       27.1793    2.0342  -11.8063 H         1 UNK         0.0850 
    117 H117       26.9500   -0.1940  -12.9009 H         1 UNK         0.0810 
    118 H118       25.6494    0.0801  -11.7518 H         1 UNK         0.0810 
    119 H119       26.9862   -0.9885  -11.3332 H         1 UNK         0.0810 
    120 H120       29.1338   -0.3658   -9.9540 H         1 UNK         0.3040 
    121 H121       31.4230   -0.2690  -11.6610 H         1 UNK         0.0766 
    122 H122       32.5424   -1.4173   -9.7327 H         1 UNK         0.0812 
    123 H123       30.9844   -2.1447  -10.0919 H         1 UNK         0.0812 
    124 H124       31.1568   -1.0670   -8.7084 H         1 UNK         0.0812 
    125 H125       30.4117    1.7111   -8.9394 H         1 UNK         0.3205 
    126 H126       31.1045    3.5327   -7.9354 H         1 UNK         0.0754 
    127 H127       32.5618    5.1931   -9.0229 H         1 UNK         0.0769 
    128 H128       31.4158    4.5671  -10.1974 H         1 UNK         0.0769 
    129 H129       33.0924    4.0206  -10.2184 H         1 UNK         0.0769 
    130 H130       32.0068    1.0823   -7.1018 H         1 UNK         0.2981 
    131 H131       34.8644    1.1457   -6.5961 H         1 UNK         0.0541 
    132 H132       32.3422    2.7423   -4.9158 H         1 UNK         0.3459 
    133 H133       33.1942    2.8886   -3.3981 H         1 UNK         0.3459 
    134 H134       34.5438   -1.0398   -5.5129 H         1 UNK         0.0612 
    135 H135       33.8511   -0.9870   -7.1097 H         1 UNK         0.0612 
    136 H136       32.2281   -2.9956   -6.9793 H         1 UNK         0.0624 
    137 H137       33.1065   -3.3644   -5.5102 H         1 UNK         0.0624 
@<TRIPOS>BOND
     1    1    2 1    
     2    1   72 1    
     3    1   73 1    
     4    1   74 1    
     5    2    3 2    
     6    2    4 am   BACKBONE|DICT|INTERRES
     7    4    5 1    
     8    4   75 1    
     9    5    6 1    
    10    5   35 1    
    11    5   76 1    
    12    6    7 1    
    13    6   77 1    
    14    6   78 1    
    15    7    8 1    
    16    8    9 1    
    17    8   79 1    
    18    8   80 1    
    19    9   10 ar   
    20    9   14 ar   
    21   10   11 ar   
    22   10   81 1    
    23   11   12 ar   
    24   11   71 1    
    25   12   13 ar   
    26   12   82 1    
    27   13   14 ar   
    28   13   15 1    
    29   14   83 1    
    30   15   16 1    
    31   15   84 1    
    32   15   85 1    
    33   16   17 1    
    34   17   18 1    
    35   17   86 1    
    36   17   87 1    
    37   18   19 1    
    38   18   37 1    
    39   18   88 1    
    40   19   20 am   BACKBONE|DICT|INTERRES
    41   19   89 1    
    42   20   21 2    
    43   20   22 1    
    44   22   23 1    
    45   22   24 1    
    46   22   90 1    
    47   23   91 1    
    48   23   92 1    
    49   23   93 1    
    50   24   25 am   BACKBONE|DICT|INTERRES
    51   24   94 1    
    52   25   26 2    
    53   25   27 1    
    54   27   28 1    
    55   27   29 1    
    56   27   95 1    
    57   28   96 1    
    58   28   97 1    
    59   28   98 1    
    60   29   30 am   BACKBONE|DICT|INTERRES
    61   29   99 1    
    62   30   31 2    
    63   30   32 1    
    64   32   33 1    
    65   32   34 1    
    66   32  100 1    
    67   33  101 1    
    68   33  102 1    
    69   33  103 1    
    70   34   35 am   BACKBONE|DICT|INTERRES
    71   34  104 1    
    72   35   36 2    
    73   37   38 2    
    74   37   39 am   BACKBONE|DICT|INTERRES
    75   39   40 1    
    76   39  105 1    
    77   40   41 1    
    78   40   42 1    
    79   40  106 1    
    80   41  107 1    
    81   41  108 1    
    82   41  109 1    
    83   42   43 2    
    84   42   44 am   BACKBONE|DICT|INTERRES
    85   44   45 1    
    86   44  110 1    
    87   45   46 1    
    88   45   47 1    
    89   45  111 1    
    90   46  112 1    
    91   46  113 1    
    92   46  114 1    
    93   47   48 2    
    94   47   49 am   BACKBONE|DICT|INTERRES
    95   49   50 1    
    96   49  115 1    
    97   50   51 1    
    98   50   52 1    
    99   50  116 1    
   100   51  117 1    
   101   51  118 1    
   102   51  119 1    
   103   52   53 2    
   104   52   54 am   BACKBONE|DICT|INTERRES
   105   54   55 1    
   106   54  120 1    
   107   55   56 1    
   108   55   57 1    
   109   55  121 1    
   110   56  122 1    
   111   56  123 1    
   112   56  124 1    
   113   57   58 2    
   114   57   59 am   BACKBONE|DICT|INTERRES
   115   59   60 1    
   116   59  125 1    
   117   60   61 1    
   118   60   62 1    
   119   60  126 1    
   120   61  127 1    
   121   61  128 1    
   122   61  129 1    
   123   62   63 2    
   124   62   64 am   BACKBONE|DICT|INTERRES
   125   64   65 1    
   126   64  130 1    
   127   65   66 1    
   128   65   69 1    
   129   65  131 1    
   130   66   67 am   BACKBONE|DICT|INTERRES
   131   66   68 2    
   132   67  132 1    
   133   67  133 1    
   134   69   70 1    
   135   69  134 1    
   136   69  135 1    
   137   70   71 1    
   138   71  136 1    
   139   71  137 1    
@<TRIPOS>SUBSTRUCTURE
     1 UNK         1 GROUP             0       ****    0 ROOT    
