@<TRIPOS>MOLECULE
3R137
137   139    1
SMALL
USER_CHARGES


@<TRIPOS>ATOM
      1 CA         26.0657   -5.9773    1.0657 C.3       0 UNK        -0.2020 
      2 C          26.1870   -5.4281   -0.3480 C.2       0 UNK         0.4855 
      3 O          25.5581   -5.9625   -1.2613 O.2       0 UNK        -0.5197 
      4 N          26.9892   -4.3672   -0.5234 N.am      1 UNK        -0.4892 
      5 CA         27.2642   -3.6706   -1.7913 C.3       1 UNK         0.0835 
      6 C6         28.0537   -4.5290   -2.8201 C.3       12 UNK        -0.0855 
      7 S7         29.6334   -5.1585   -2.1507 S.3       12 UNK        -0.2931 
      8 C8         30.8527   -4.5207   -3.3569 C.3       12 UNK         0.0378 
      9 C9         31.1116   -3.0113   -3.3291 C.ar      12 UNK        -0.0802 
     10 C10        31.8366   -2.4449   -4.3829 C.ar      12 UNK        -0.0944 
     11 C11        32.1344   -1.0788   -4.3980 C.ar      12 UNK        -0.0787 
     12 C12        31.6795   -0.2646   -3.3593 C.ar      12 UNK        -0.0862 
     13 C13        30.9350   -0.8072   -2.3098 C.ar      12 UNK        -0.0733 
     14 C14        30.6798   -2.1815   -2.2856 C.ar      12 UNK        -0.0832 
     15 C15        30.4003    0.0921   -1.2036 C.3       12 UNK         0.0240 
     16 S16        29.2608    1.3691   -1.8361 S.3       12 UNK        -0.2522 
     17 C17        27.9768    0.3842   -2.6844 C.3       12 UNK        -0.0967 
     18 CA         28.0012    0.5620   -4.2259 C.3       5 UNK         0.0660 
     19 N          27.2453   -0.4869   -4.9120 N.am      5 UNK        -0.4015 
     20 C          27.3346   -0.7590   -6.2223 C.2       4 UNK         0.4946 
     21 O          28.1454   -0.2334   -6.9865 O.2       4 UNK        -0.5353 
     22 CA         26.3156   -1.7570   -6.7939 C.3       4 UNK         0.0277 
     23 CB         26.8772   -3.1876   -6.7712 C.3       4 UNK        -0.1981 
     24 N          25.0243   -1.7052   -6.1005 N.am      4 UNK        -0.4209 
     25 C          24.1658   -0.6798   -6.2163 C.2       3 UNK         0.4942 
     26 O          24.3749    0.3028   -6.9247 O.2       3 UNK        -0.5208 
     27 CA         22.8774   -0.7217   -5.3783 C.3       3 UNK         0.0250 
     28 CB         21.7657   -1.4593   -6.1408 C.3       3 UNK        -0.1990 
     29 N          23.0441   -1.3229   -4.0545 N.am      3 UNK        -0.4232 
     30 C          23.8904   -0.8984   -3.1061 C.2       2 UNK         0.4993 
     31 O          24.6516    0.0612   -3.2484 O.2       2 UNK        -0.5286 
     32 CA         23.9328   -1.7021   -1.7907 C.3       2 UNK         0.0209 
     33 CB         22.8377   -2.7879   -1.6785 C.3       2 UNK        -0.1931 
     34 N          25.2465   -2.3086   -1.5371 N.am      2 UNK        -0.4546 
     35 C          25.9810   -3.0483   -2.3846 C.2       1 UNK         0.5154 
     36 O          25.6781   -3.2503   -3.5625 O.2       1 UNK        -0.5181 
     37 C          27.4864    1.9498   -4.6557 C.2       5 UNK         0.5014 
     38 O          28.2846    2.7930   -5.0657 O.2       5 UNK        -0.5248 
     39 N          26.1603    2.1449   -4.5814 N.am      6 UNK        -0.4434 
     40 CA         25.4733    3.3967   -4.9112 C.3       6 UNK         0.0363 
     41 CB         23.9826    3.2717   -4.5591 C.3       6 UNK        -0.1936 
     42 C          25.6495    3.8362   -6.3750 C.2       6 UNK         0.5081 
     43 O          25.9085    5.0140   -6.6237 O.2       6 UNK        -0.5248 
     44 N          25.5189    2.8901   -7.3145 N.am      7 UNK        -0.4718 
     45 CA         25.6953    3.1275   -8.7503 C.3       7 UNK         0.0273 
     46 CB         24.9439    2.0390   -9.5352 C.3       7 UNK        -0.1935 
     47 C          27.1691    3.1669   -9.1908 C.2       7 UNK         0.5018 
     48 O          27.4346    3.6119  -10.3082 O.2       7 UNK        -0.5186 
     49 N          28.0830    2.6794   -8.3356 N.am      8 UNK        -0.4240 
     50 CA         29.5088    2.4420   -8.5951 C.3       8 UNK         0.0235 
     51 CB         30.2715    3.7704   -8.7822 C.3       8 UNK        -0.2000 
     52 C          29.7039    1.4542   -9.7616 C.2       8 UNK         0.4941 
     53 O          30.3737    1.7674  -10.7474 O.2       8 UNK        -0.5273 
     54 N          29.0754    0.2783   -9.6311 N.am      9 UNK        -0.4262 
     55 CA         29.0460   -0.7816  -10.6460 C.3       9 UNK         0.0264 
     56 CB         27.7976   -1.6493  -10.4158 C.3       9 UNK        -0.1955 
     57 C          30.3176   -1.6526  -10.6711 C.2       9 UNK         0.5031 
     58 O          30.4354   -2.5218  -11.5367 O.2       9 UNK        -0.5390 
     59 N          31.2337   -1.4201   -9.7280 N.am      10 UNK        -0.4204 
     60 CA         32.5244   -2.0824   -9.5795 C.3       10 UNK         0.0237 
     61 CB         32.3662   -3.2928   -8.6363 C.3       10 UNK        -0.1985 
     62 C          33.5383   -1.0483   -9.0634 C.2       10 UNK         0.4970 
     63 O          33.2315    0.1467   -9.0448 O.2       10 UNK        -0.4914 
     64 N          34.7132   -1.5241   -8.6326 N.am      11 UNK        -0.4285 
     65 CA         35.8134   -0.7250   -8.0576 C.3       11 UNK         0.1007 
     66 C          36.5777    0.1622   -9.0887 C.2       11 UNK         0.5703 
     67 N          36.4090   -0.0389  -10.3906 N.am      11 UNK        -0.7361 
     68 O          37.3656    1.0252   -8.7078 O.2       11 UNK        -0.4986 
     69 C69        35.4094    0.0688   -6.7769 C.3       12 UNK        -0.0947 
     70 S70        34.6848   -0.9700   -5.4622 S.3       12 UNK        -0.2240 
     71 C71        32.9333   -0.4786   -5.5422 C.3       12 UNK         0.0194 
     72 H72        26.3872   -7.0182    1.0917 H         1 UNK         0.0906 
     73 H73        26.6735   -5.4178    1.7766 H         1 UNK         0.0906 
     74 H74        25.0287   -5.9327    1.3976 H         1 UNK         0.0906 
     75 H75        27.4778   -3.9973    0.2806 H         1 UNK         0.3140 
     76 H76        27.8919   -2.8208   -1.5293 H         1 UNK         0.1085 
     77 H77        28.2633   -3.9409   -3.7152 H         1 UNK         0.0836 
     78 H78        27.4564   -5.3801   -3.1516 H         1 UNK         0.0836 
     79 H79        30.5356   -4.8177   -4.3581 H         1 UNK         0.0731 
     80 H80        31.8009   -5.0281   -3.1745 H         1 UNK         0.0731 
     81 H81        32.1901   -3.0733   -5.1889 H         1 UNK         0.1312 
     82 H82        31.8898    0.7964   -3.3715 H         1 UNK         0.1406 
     83 H83        30.1460   -2.5977   -1.4452 H         1 UNK         0.1631 
     84 H84        31.2384    0.5815   -0.7056 H         1 UNK         0.0717 
     85 H85        29.8854   -0.4904   -0.4381 H         1 UNK         0.0717 
     86 H86        28.1246   -0.6648   -2.4342 H         1 UNK         0.0934 
     87 H87        27.0052    0.6501   -2.2650 H         1 UNK         0.0934 
     88 H88        29.0382    0.4756   -4.5589 H         1 UNK         0.0739 
     89 H89        26.5063   -0.9321   -4.3853 H         1 UNK         0.3093 
     90 H90        26.1439   -1.4807   -7.8362 H         1 UNK         0.0818 
     91 H91        27.8377   -3.2404   -7.2854 H         1 UNK         0.0819 
     92 H92        27.0383   -3.5471   -5.7562 H         1 UNK         0.0819 
     93 H93        26.2038   -3.8846   -7.2699 H         1 UNK         0.0819 
     94 H94        24.8264   -2.4477   -5.4391 H         1 UNK         0.3041 
     95 H95        22.5546    0.3095   -5.2255 H         1 UNK         0.0784 
     96 H96        21.6066   -1.0145   -7.1244 H         1 UNK         0.0793 
     97 H97        22.0095   -2.5114   -6.2946 H         1 UNK         0.0793 
     98 H98        20.8161   -1.4079   -5.6078 H         1 UNK         0.0793 
     99 H99        22.4811   -2.1367   -3.8543 H         1 UNK         0.3024 
    100 H100       23.7618   -0.9742   -0.9956 H         1 UNK         0.1171 
    101 H101       22.8603   -3.2601   -0.6961 H         1 UNK         0.0786 
    102 H102       21.8395   -2.3648   -1.8002 H         1 UNK         0.0786 
    103 H103       22.9646   -3.5789   -2.4191 H         1 UNK         0.0786 
    104 H104       25.5992   -2.1915   -0.5974 H         1 UNK         0.2977 
    105 H105       25.5816    1.3953   -4.2069 H         1 UNK         0.3127 
    106 H106       25.9053    4.1766   -4.2806 H         1 UNK         0.0770 
    107 H107       23.4906    2.5075   -5.1607 H         1 UNK         0.0814 
    108 H108       23.4601    4.2125   -4.7369 H         1 UNK         0.0814 
    109 H109       23.8412    3.0146   -3.5091 H         1 UNK         0.0814 
    110 H110       25.2412    1.9486   -7.0412 H         1 UNK         0.2983 
    111 H111       25.2535    4.0941   -9.0028 H         1 UNK         0.0947 
    112 H112       24.9939    2.2245  -10.6089 H         1 UNK         0.0806 
    113 H113       23.8894    2.0067   -9.2606 H         1 UNK         0.0806 
    114 H114       25.3673    1.0497   -9.3560 H         1 UNK         0.0806 
    115 H115       27.7484    2.3508   -7.4391 H         1 UNK         0.3000 
    116 H116       29.9079    1.9559   -7.7029 H         1 UNK         0.0850 
    117 H117       31.3428    3.5906   -8.8806 H         1 UNK         0.0810 
    118 H118       30.1297    4.4306   -7.9266 H         1 UNK         0.0810 
    119 H119       29.9493    4.3048   -9.6763 H         1 UNK         0.0810 
    120 H120       28.5995    0.0869   -8.7498 H         1 UNK         0.3040 
    121 H121       28.9564   -0.3145  -11.6291 H         1 UNK         0.0766 
    122 H122       26.8886   -1.0475  -10.4059 H         1 UNK         0.0812 
    123 H123       27.8569   -2.1903   -9.4721 H         1 UNK         0.0812 
    124 H124       27.6854   -2.3909  -11.2079 H         1 UNK         0.0812 
    125 H125       31.1014   -0.6188   -9.1253 H         1 UNK         0.3205 
    126 H126       32.8757   -2.4241  -10.5554 H         1 UNK         0.0754 
    127 H127       31.6024   -3.9790   -9.0032 H         1 UNK         0.0769 
    128 H128       32.0765   -2.9844   -7.6317 H         1 UNK         0.0769 
    129 H129       33.2902   -3.8655   -8.5538 H         1 UNK         0.0769 
    130 H130       34.8871   -2.5167   -8.6917 H         1 UNK         0.2981 
    131 H131       36.5546   -1.4612   -7.7451 H         1 UNK         0.0541 
    132 H132       36.9172    0.5323  -11.0472 H         1 UNK         0.3459 
    133 H133       35.7788   -0.7509  -10.7219 H         1 UNK         0.3459 
    134 H134       36.2889    0.5457   -6.3412 H         1 UNK         0.0612 
    135 H135       34.7282    0.8843   -7.0232 H         1 UNK         0.0612 
    136 H136       32.8626    0.6102   -5.5278 H         1 UNK         0.0624 
    137 H137       32.4961   -0.8037   -6.4842 H         1 UNK         0.0624 
@<TRIPOS>BOND
     1    1    2 1    
     2    1   72 1    
     3    1   73 1    
     4    1   74 1    
     5    2    3 2    
     6    2    4 am   BACKBONE|DICT|INTERRES
     7    4    5 1    
     8    4   75 1    
     9    5    6 1    
    10    5   35 1    
    11    5   76 1    
    12    6    7 1    
    13    6   77 1    
    14    6   78 1    
    15    7    8 1    
    16    8    9 1    
    17    8   79 1    
    18    8   80 1    
    19    9   10 ar   
    20    9   14 ar   
    21   10   11 ar   
    22   10   81 1    
    23   11   12 ar   
    24   11   71 1    
    25   12   13 ar   
    26   12   82 1    
    27   13   14 ar   
    28   13   15 1    
    29   14   83 1    
    30   15   16 1    
    31   15   84 1    
    32   15   85 1    
    33   16   17 1    
    34   17   18 1    
    35   17   86 1    
    36   17   87 1    
    37   18   19 1    
    38   18   37 1    
    39   18   88 1    
    40   19   20 am   BACKBONE|DICT|INTERRES
    41   19   89 1    
    42   20   21 2    
    43   20   22 1    
    44   22   23 1    
    45   22   24 1    
    46   22   90 1    
    47   23   91 1    
    48   23   92 1    
    49   23   93 1    
    50   24   25 am   BACKBONE|DICT|INTERRES
    51   24   94 1    
    52   25   26 2    
    53   25   27 1    
    54   27   28 1    
    55   27   29 1    
    56   27   95 1    
    57   28   96 1    
    58   28   97 1    
    59   28   98 1    
    60   29   30 am   BACKBONE|DICT|INTERRES
    61   29   99 1    
    62   30   31 2    
    63   30   32 1    
    64   32   33 1    
    65   32   34 1    
    66   32  100 1    
    67   33  101 1    
    68   33  102 1    
    69   33  103 1    
    70   34   35 am   BACKBONE|DICT|INTERRES
    71   34  104 1    
    72   35   36 2    
    73   37   38 2    
    74   37   39 am   BACKBONE|DICT|INTERRES
    75   39   40 1    
    76   39  105 1    
    77   40   41 1    
    78   40   42 1    
    79   40  106 1    
    80   41  107 1    
    81   41  108 1    
    82   41  109 1    
    83   42   43 2    
    84   42   44 am   BACKBONE|DICT|INTERRES
    85   44   45 1    
    86   44  110 1    
    87   45   46 1    
    88   45   47 1    
    89   45  111 1    
    90   46  112 1    
    91   46  113 1    
    92   46  114 1    
    93   47   48 2    
    94   47   49 am   BACKBONE|DICT|INTERRES
    95   49   50 1    
    96   49  115 1    
    97   50   51 1    
    98   50   52 1    
    99   50  116 1    
   100   51  117 1    
   101   51  118 1    
   102   51  119 1    
   103   52   53 2    
   104   52   54 am   BACKBONE|DICT|INTERRES
   105   54   55 1    
   106   54  120 1    
   107   55   56 1    
   108   55   57 1    
   109   55  121 1    
   110   56  122 1    
   111   56  123 1    
   112   56  124 1    
   113   57   58 2    
   114   57   59 am   BACKBONE|DICT|INTERRES
   115   59   60 1    
   116   59  125 1    
   117   60   61 1    
   118   60   62 1    
   119   60  126 1    
   120   61  127 1    
   121   61  128 1    
   122   61  129 1    
   123   62   63 2    
   124   62   64 am   BACKBONE|DICT|INTERRES
   125   64   65 1    
   126   64  130 1    
   127   65   66 1    
   128   65   69 1    
   129   65  131 1    
   130   66   67 am   BACKBONE|DICT|INTERRES
   131   66   68 2    
   132   67  132 1    
   133   67  133 1    
   134   69   70 1    
   135   69  134 1    
   136   69  135 1    
   137   70   71 1    
   138   71  136 1    
   139   71  137 1    
@<TRIPOS>SUBSTRUCTURE
     1 UNK         1 GROUP             0       ****    0 ROOT    
