@<TRIPOS>MOLECULE
3R137
137   139    1
SMALL
USER_CHARGES


@<TRIPOS>ATOM
      1 CA         27.1640   -0.2261    2.8361 C.3       0 UNK        -0.2020 
      2 C          28.0873    0.1893    1.7008 C.2       0 UNK         0.4855 
      3 O          28.5460    1.3312    1.6709 O.2       0 UNK        -0.5197 
      4 N          28.3643   -0.7295    0.7666 N.am      1 UNK        -0.4892 
      5 CA         29.2115   -0.5044   -0.4123 C.3       1 UNK         0.0835 
      6 C6         29.6730   -1.8397   -1.0514 C.3       12 UNK        -0.0855 
      7 S7         28.3057   -2.9926   -1.4432 S.3       12 UNK        -0.2931 
      8 C8         29.2196   -4.5019   -1.9010 C.3       12 UNK         0.0378 
      9 C9         29.7021   -4.4529   -3.3439 C.ar      12 UNK        -0.0802 
     10 C10        30.9158   -3.8372   -3.6611 C.ar      12 UNK        -0.0944 
     11 C11        31.3531   -3.7591   -4.9867 C.ar      12 UNK        -0.0787 
     12 C12        30.5701   -4.3272   -5.9995 C.ar      12 UNK        -0.0862 
     13 C13        29.3552   -4.9551   -5.6981 C.ar      12 UNK        -0.0733 
     14 C14        28.9316   -5.0183   -4.3653 C.ar      12 UNK        -0.0832 
     15 C15        28.5289   -5.6011   -6.8075 C.3       12 UNK         0.0240 
     16 S16        26.7770   -5.0763   -6.7965 S.3       12 UNK        -0.2522 
     17 C17        26.5284   -4.4077   -8.4843 C.3       12 UNK        -0.0967 
     18 CA         26.3018   -2.8754   -8.5486 C.3       5 UNK         0.0660 
     19 N          25.1249   -2.4389   -7.7891 N.am      5 UNK        -0.4015 
     20 C          24.6125   -1.2009   -7.8091 C.2       4 UNK         0.4946 
     21 O          25.0613   -0.2900   -8.5062 O.2       4 UNK        -0.5353 
     22 CA         23.4360   -0.9071   -6.8641 C.3       4 UNK         0.0277 
     23 CB         22.1773   -1.7065   -7.2561 C.3       4 UNK        -0.1981 
     24 N          23.7646   -1.0666   -5.4400 N.am      4 UNK        -0.4209 
     25 C          24.0964   -2.1782   -4.7699 C.2       3 UNK         0.4942 
     26 O          24.1870   -3.2871   -5.2985 O.2       3 UNK        -0.5208 
     27 CA         24.3760   -2.0221   -3.2596 C.3       3 UNK         0.0250 
     28 CB         24.7811   -3.3554   -2.6020 C.3       3 UNK        -0.1990 
     29 N          25.3998   -1.0188   -2.9426 N.am      3 UNK        -0.4232 
     30 C          25.2524    0.3142   -3.0035 C.2       2 UNK         0.4993 
     31 O          24.2375    0.8590   -3.4407 O.2       2 UNK        -0.5286 
     32 CA         26.4150    1.1787   -2.4816 C.3       2 UNK         0.0209 
     33 CB         25.9291    2.4948   -1.8457 C.3       2 UNK        -0.1931 
     34 N          27.2228    0.4393   -1.5086 N.am      2 UNK        -0.4546 
     35 C          28.5609    0.4194   -1.4639 C.2       1 UNK         0.5154 
     36 O          29.2810    1.0771   -2.2156 O.2       1 UNK        -0.5181 
     37 C          27.5609   -2.0864   -8.1471 C.2       5 UNK         0.5014 
     38 O          28.3250   -1.6736   -9.0176 O.2       5 UNK        -0.5248 
     39 N          27.7100   -1.8423   -6.8389 N.am      6 UNK        -0.4434 
     40 CA         28.7917   -1.0609   -6.2492 C.3       6 UNK         0.0363 
     41 CB         28.7245   -1.1961   -4.7256 C.3       6 UNK        -0.1936 
     42 C          28.7498    0.4190   -6.6520 C.2       6 UNK         0.5081 
     43 O          29.8038    1.0284   -6.8312 O.2       6 UNK        -0.5248 
     44 N          27.5374    0.9697   -6.8000 N.am      7 UNK        -0.4718 
     45 CA         27.3147    2.3355   -7.2715 C.3       7 UNK         0.0273 
     46 CB         25.8787    2.7744   -6.9417 C.3       7 UNK        -0.1935 
     47 C          27.6125    2.4648   -8.7732 C.2       7 UNK         0.5018 
     48 O          28.2718    3.4235   -9.1741 O.2       7 UNK        -0.5186 
     49 N          27.1617    1.4798   -9.5648 N.am      8 UNK        -0.4240 
     50 CA         27.4137    1.3832  -11.0052 C.3       8 UNK         0.0235 
     51 CB         26.5615    0.2515  -11.6021 C.3       8 UNK        -0.2000 
     52 C          28.9017    1.1863  -11.3454 C.2       8 UNK         0.4941 
     53 O          29.4077    1.8528  -12.2489 O.2       8 UNK        -0.5273 
     54 N          29.5783    0.2938  -10.6092 N.am      9 UNK        -0.4262 
     55 CA         31.0098    0.0085  -10.7494 C.3       9 UNK         0.0264 
     56 CB         31.3041   -1.3710  -10.1389 C.3       9 UNK        -0.1955 
     57 C          31.9244    1.0785  -10.1231 C.2       9 UNK         0.5031 
     58 O          33.1238    1.0656  -10.4046 O.2       9 UNK        -0.5390 
     59 N          31.3577    1.9664   -9.2918 N.am      10 UNK        -0.4204 
     60 CA         32.0228    3.0229   -8.5201 C.3       10 UNK         0.0237 
     61 CB         32.6315    4.0945   -9.4502 C.3       10 UNK        -0.1985 
     62 C          33.0260    2.4580   -7.4943 C.2       10 UNK         0.4970 
     63 O          34.1549    2.9435   -7.3956 O.2       10 UNK        -0.4914 
     64 N          32.5789    1.4438   -6.7480 N.am      11 UNK        -0.4285 
     65 CA         33.3131    0.7688   -5.6671 C.3       11 UNK         0.1007 
     66 C          32.5243    0.7210   -4.3251 C.2       11 UNK         0.5703 
     67 N          31.3201    1.2758   -4.2482 N.am      11 UNK        -0.7361 
     68 O          33.0249    0.1961   -3.3332 O.2       11 UNK        -0.4986 
     69 C69        33.8471   -0.6188   -6.1193 C.3       12 UNK        -0.0947 
     70 S70        32.5272   -1.7931   -6.5838 S.3       12 UNK        -0.2240 
     71 C71        32.6820   -3.0785   -5.3017 C.3       12 UNK         0.0194 
     72 H72        26.8354   -1.2606    2.7379 H         1 UNK         0.0906 
     73 H73        27.6758   -0.1227    3.7925 H         1 UNK         0.0906 
     74 H74        26.2796    0.4104    2.8524 H         1 UNK         0.0906 
     75 H75        27.9705   -1.6582    0.8385 H         1 UNK         0.3140 
     76 H76        30.1085    0.0190   -0.0726 H         1 UNK         0.1085 
     77 H77        30.2537   -1.6471   -1.9552 H         1 UNK         0.0836 
     78 H78        30.3555   -2.3440   -0.3656 H         1 UNK         0.0836 
     79 H79        30.0610   -4.6509   -1.2226 H         1 UNK         0.0731 
     80 H80        28.5630   -5.3617   -1.7595 H         1 UNK         0.0731 
     81 H81        31.5180   -3.4093   -2.8718 H         1 UNK         0.1312 
     82 H82        30.9116   -4.2777   -7.0244 H         1 UNK         0.1406 
     83 H83        27.9943   -5.5016   -4.1249 H         1 UNK         0.1631 
     84 H84        28.5653   -6.6838   -6.6813 H         1 UNK         0.0717 
     85 H85        28.9800   -5.3965   -7.7787 H         1 UNK         0.0717 
     86 H86        27.3566   -4.6928   -9.1350 H         1 UNK         0.0934 
     87 H87        25.6570   -4.9117   -8.9052 H         1 UNK         0.0934 
     88 H88        26.1025   -2.6251   -9.5928 H         1 UNK         0.0739 
     89 H89        24.7499   -3.0912   -7.1037 H         1 UNK         0.3093 
     90 H90        23.1957    0.1500   -6.9905 H         1 UNK         0.0818 
     91 H91        21.3217   -1.4176   -6.6457 H         1 UNK         0.0819 
     92 H92        21.9084   -1.5213   -8.2969 H         1 UNK         0.0819 
     93 H93        22.3164   -2.7821   -7.1451 H         1 UNK         0.0819 
     94 H94        23.7587   -0.2085   -4.8904 H         1 UNK         0.3041 
     95 H95        23.4380   -1.7015   -2.8011 H         1 UNK         0.0784 
     96 H96        24.0103   -4.1140   -2.7453 H         1 UNK         0.0793 
     97 H97        25.7066   -3.7484   -3.0257 H         1 UNK         0.0793 
     98 H98        24.9252   -3.2438   -1.5271 H         1 UNK         0.0793 
     99 H99        26.2808   -1.3842   -2.6086 H         1 UNK         0.3024 
    100 H100       27.0220    1.4298   -3.3546 H         1 UNK         0.1171 
    101 H101       25.2750    2.3111   -0.9927 H         1 UNK         0.0786 
    102 H102       26.7680    3.0994   -1.5003 H         1 UNK         0.0786 
    103 H103       25.3723    3.0986   -2.5636 H         1 UNK         0.0786 
    104 H104       26.7195   -0.1173   -0.8314 H         1 UNK         0.2977 
    105 H105       27.0490   -2.2654   -6.2039 H         1 UNK         0.3127 
    106 H106       29.7295   -1.4877   -6.6022 H         1 UNK         0.0770 
    107 H107       29.6533   -0.8611   -4.2665 H         1 UNK         0.0814 
    108 H108       27.9137   -0.6074   -4.3030 H         1 UNK         0.0814 
    109 H109       28.5717   -2.2284   -4.4225 H         1 UNK         0.0814 
    110 H110       26.7230    0.3848   -6.6879 H         1 UNK         0.2983 
    111 H111       28.0008    2.9979   -6.7382 H         1 UNK         0.0947 
    112 H112       25.7114    3.8088   -7.2449 H         1 UNK         0.0806 
    113 H113       25.6812    2.7154   -5.8710 H         1 UNK         0.0806 
    114 H114       25.1352    2.1632   -7.4535 H         1 UNK         0.0806 
    115 H115       26.5834    0.7524   -9.1519 H         1 UNK         0.3000 
    116 H116       27.0938    2.3238  -11.4586 H         1 UNK         0.0850 
    117 H117       26.7050    0.1819  -12.6812 H         1 UNK         0.0810 
    118 H118       25.4990    0.4205  -11.4255 H         1 UNK         0.0810 
    119 H119       26.8195   -0.7178  -11.1747 H         1 UNK         0.0810 
    120 H120       29.0700   -0.2738   -9.9314 H         1 UNK         0.3040 
    121 H121       31.2493   -0.0357  -11.8139 H         1 UNK         0.0766 
    122 H122       31.0400   -1.4012   -9.0819 H         1 UNK         0.0812 
    123 H123       32.3622   -1.6237  -10.2194 H         1 UNK         0.0812 
    124 H124       30.7421   -2.1565  -10.6440 H         1 UNK         0.0812 
    125 H125       30.3687    1.8600   -9.1083 H         1 UNK         0.3205 
    126 H126       31.2366    3.5063   -7.9378 H         1 UNK         0.0754 
    127 H127       33.0118    4.9393   -8.8747 H         1 UNK         0.0769 
    128 H128       31.8863    4.4845  -10.1436 H         1 UNK         0.0769 
    129 H129       33.4625    3.7013  -10.0364 H         1 UNK         0.0769 
    130 H130       31.6184    1.1326   -6.8805 H         1 UNK         0.2981 
    131 H131       34.1887    1.3731   -5.4250 H         1 UNK         0.0541 
    132 H132       30.8812    1.6540   -5.0743 H         1 UNK         0.3459 
    133 H133       30.7911    1.2334   -3.3829 H         1 UNK         0.3459 
    134 H134       34.4850   -1.0536   -5.3485 H         1 UNK         0.0612 
    135 H135       34.4924   -0.4902   -6.9895 H         1 UNK         0.0612 
    136 H136       33.0915   -2.6299   -4.3955 H         1 UNK         0.0624 
    137 H137       33.4031   -3.8269   -5.6322 H         1 UNK         0.0624 
@<TRIPOS>BOND
     1    1    2 1    
     2    1   72 1    
     3    1   73 1    
     4    1   74 1    
     5    2    3 2    
     6    2    4 am   BACKBONE|DICT|INTERRES
     7    4    5 1    
     8    4   75 1    
     9    5    6 1    
    10    5   35 1    
    11    5   76 1    
    12    6    7 1    
    13    6   77 1    
    14    6   78 1    
    15    7    8 1    
    16    8    9 1    
    17    8   79 1    
    18    8   80 1    
    19    9   10 ar   
    20    9   14 ar   
    21   10   11 ar   
    22   10   81 1    
    23   11   12 ar   
    24   11   71 1    
    25   12   13 ar   
    26   12   82 1    
    27   13   14 ar   
    28   13   15 1    
    29   14   83 1    
    30   15   16 1    
    31   15   84 1    
    32   15   85 1    
    33   16   17 1    
    34   17   18 1    
    35   17   86 1    
    36   17   87 1    
    37   18   19 1    
    38   18   37 1    
    39   18   88 1    
    40   19   20 am   BACKBONE|DICT|INTERRES
    41   19   89 1    
    42   20   21 2    
    43   20   22 1    
    44   22   23 1    
    45   22   24 1    
    46   22   90 1    
    47   23   91 1    
    48   23   92 1    
    49   23   93 1    
    50   24   25 am   BACKBONE|DICT|INTERRES
    51   24   94 1    
    52   25   26 2    
    53   25   27 1    
    54   27   28 1    
    55   27   29 1    
    56   27   95 1    
    57   28   96 1    
    58   28   97 1    
    59   28   98 1    
    60   29   30 am   BACKBONE|DICT|INTERRES
    61   29   99 1    
    62   30   31 2    
    63   30   32 1    
    64   32   33 1    
    65   32   34 1    
    66   32  100 1    
    67   33  101 1    
    68   33  102 1    
    69   33  103 1    
    70   34   35 am   BACKBONE|DICT|INTERRES
    71   34  104 1    
    72   35   36 2    
    73   37   38 2    
    74   37   39 am   BACKBONE|DICT|INTERRES
    75   39   40 1    
    76   39  105 1    
    77   40   41 1    
    78   40   42 1    
    79   40  106 1    
    80   41  107 1    
    81   41  108 1    
    82   41  109 1    
    83   42   43 2    
    84   42   44 am   BACKBONE|DICT|INTERRES
    85   44   45 1    
    86   44  110 1    
    87   45   46 1    
    88   45   47 1    
    89   45  111 1    
    90   46  112 1    
    91   46  113 1    
    92   46  114 1    
    93   47   48 2    
    94   47   49 am   BACKBONE|DICT|INTERRES
    95   49   50 1    
    96   49  115 1    
    97   50   51 1    
    98   50   52 1    
    99   50  116 1    
   100   51  117 1    
   101   51  118 1    
   102   51  119 1    
   103   52   53 2    
   104   52   54 am   BACKBONE|DICT|INTERRES
   105   54   55 1    
   106   54  120 1    
   107   55   56 1    
   108   55   57 1    
   109   55  121 1    
   110   56  122 1    
   111   56  123 1    
   112   56  124 1    
   113   57   58 2    
   114   57   59 am   BACKBONE|DICT|INTERRES
   115   59   60 1    
   116   59  125 1    
   117   60   61 1    
   118   60   62 1    
   119   60  126 1    
   120   61  127 1    
   121   61  128 1    
   122   61  129 1    
   123   62   63 2    
   124   62   64 am   BACKBONE|DICT|INTERRES
   125   64   65 1    
   126   64  130 1    
   127   65   66 1    
   128   65   69 1    
   129   65  131 1    
   130   66   67 am   BACKBONE|DICT|INTERRES
   131   66   68 2    
   132   67  132 1    
   133   67  133 1    
   134   69   70 1    
   135   69  134 1    
   136   69  135 1    
   137   70   71 1    
   138   71  136 1    
   139   71  137 1    
@<TRIPOS>SUBSTRUCTURE
     1 UNK         1 GROUP             0       ****    0 ROOT    
