@<TRIPOS>MOLECULE
3R137
137   139    1
SMALL
USER_CHARGES


@<TRIPOS>ATOM
      1 CA         27.6244   -7.5621    1.7520 C.3       0 UNK        -0.2020 
      2 C          28.1745   -6.1440    1.7835 C.2       0 UNK         0.4855 
      3 O          28.6793   -5.7046    2.8173 O.2       0 UNK        -0.5197 
      4 N          28.0773   -5.4242    0.6631 N.am      1 UNK        -0.4892 
      5 CA         28.5393   -4.0480    0.4924 C.3       1 UNK         0.0835 
      6 C6         30.0783   -3.9409    0.2963 C.3       12 UNK        -0.0855 
      7 S7         30.7412   -4.9608   -1.0714 S.3       12 UNK        -0.2931 
      8 C8         31.8458   -3.7920   -1.9284 C.3       12 UNK         0.0378 
      9 C9         31.0960   -2.7349   -2.7306 C.ar      12 UNK        -0.0802 
     10 C10        31.2635   -1.3772   -2.4376 C.ar      12 UNK        -0.0944 
     11 C11        30.6363   -0.3970   -3.2137 C.ar      12 UNK        -0.0787 
     12 C12        29.8216   -0.7888   -4.2807 C.ar      12 UNK        -0.0862 
     13 C13        29.6533   -2.1409   -4.5913 C.ar      12 UNK        -0.0733 
     14 C14        30.2872   -3.1101   -3.8086 C.ar      12 UNK        -0.0832 
     15 C15        28.8397   -2.5436   -5.8107 C.3       12 UNK         0.0240 
     16 S16        27.0492   -2.4833   -5.4969 S.3       12 UNK        -0.2522 
     17 C17        26.4182   -2.5689   -7.2155 C.3       12 UNK        -0.0967 
     18 CA         25.8932   -1.2142   -7.7595 C.3       5 UNK         0.0660 
     19 N          24.7902   -0.7103   -6.9343 N.am      5 UNK        -0.4015 
     20 C          24.1282    0.4501   -7.0230 C.2       4 UNK         0.4946 
     21 O          24.3811    1.3222   -7.8559 O.2       4 UNK        -0.5353 
     22 CA         23.0249    0.7110   -5.9749 C.3       4 UNK         0.0277 
     23 CB         21.6279    0.4726   -6.5811 C.3       4 UNK        -0.1981 
     24 N          23.1854   -0.0060   -4.6927 N.am      4 UNK        -0.4209 
     25 C          23.1207   -1.3256   -4.4553 C.2       3 UNK         0.4942 
     26 O          22.9407   -2.1707   -5.3325 O.2       3 UNK        -0.5208 
     27 CA         23.4318   -1.7723   -3.0239 C.3       3 UNK         0.0250 
     28 CB         22.9788   -3.2177   -2.7327 C.3       3 UNK        -0.1990 
     29 N          24.8739   -1.6476   -2.8306 N.am      3 UNK        -0.4232 
     30 C          25.4833   -1.4779   -1.6543 C.2       2 UNK         0.4993 
     31 O          24.8957   -1.4250   -0.5708 O.2       2 UNK        -0.5286 
     32 CA         27.0080   -1.2855   -1.6996 C.3       2 UNK         0.0209 
     33 CB         27.3591    0.1971   -1.5001 C.3       2 UNK        -0.1931 
     34 N          27.6935   -2.0758   -0.6777 N.am      2 UNK        -0.4546 
     35 C          27.7458   -3.4135   -0.6615 C.2       1 UNK         0.5154 
     36 O          27.2095   -4.1373   -1.5072 O.2       1 UNK        -0.5181 
     37 C          27.0508   -0.2180   -7.9799 C.2       5 UNK         0.5014 
     38 O          27.6860   -0.2630   -9.0345 O.2       5 UNK        -0.5248 
     39 N          27.2906    0.6717   -7.0036 N.am      6 UNK        -0.4434 
     40 CA         28.2934    1.7408   -7.0249 C.3       6 UNK         0.0363 
     41 CB         28.1588    2.5835   -5.7456 C.3       6 UNK        -0.1936 
     42 C          28.2100    2.6555   -8.2587 C.2       6 UNK         0.5081 
     43 O          29.2475    3.1142   -8.7335 O.2       6 UNK        -0.5248 
     44 N          26.9936    2.8681   -8.7816 N.am      7 UNK        -0.4718 
     45 CA         26.7372    3.6555   -9.9901 C.3       7 UNK         0.0273 
     46 CB         25.2240    3.8938  -10.1183 C.3       7 UNK        -0.1935 
     47 C          27.2920    3.0227  -11.2812 C.2       7 UNK         0.5018 
     48 O          27.5177    3.7522  -12.2477 O.2       7 UNK        -0.5186 
     49 N          27.4916    1.6974  -11.2830 N.am      8 UNK        -0.4240 
     50 CA         28.0141    0.9342  -12.4165 C.3       8 UNK         0.0235 
     51 CB         27.0817   -0.2572  -12.6961 C.3       8 UNK        -0.2000 
     52 C          29.4445    0.4447  -12.1528 C.2       8 UNK         0.4941 
     53 O          30.2994    0.5787  -13.0288 O.2       8 UNK        -0.5273 
     54 N          29.6787   -0.1306  -10.9659 N.am      9 UNK        -0.4262 
     55 CA         30.9326   -0.7910  -10.5976 C.3       9 UNK         0.0264 
     56 CB         30.6298   -1.8551   -9.5290 C.3       9 UNK        -0.1955 
     57 C          32.0209    0.1652  -10.0853 C.2       9 UNK         0.5031 
     58 O          33.1737   -0.2590   -9.9842 O.2       9 UNK        -0.5390 
     59 N          31.6468    1.3978   -9.7016 N.am      10 UNK        -0.4204 
     60 CA         32.5037    2.4225   -9.0794 C.3       10 UNK         0.0237 
     61 CB         33.5368    2.9549  -10.0956 C.3       10 UNK        -0.1985 
     62 C          33.1573    1.9660   -7.7551 C.2       10 UNK         0.4970 
     63 O          34.2037    2.4955   -7.3771 O.2       10 UNK        -0.4914 
     64 N          32.5351    0.9796   -7.0932 N.am      11 UNK        -0.4285 
     65 CA         33.0242    0.2722   -5.8977 C.3       11 UNK         0.1007 
     66 C          34.3168   -0.5681   -6.1353 C.2       11 UNK         0.5703 
     67 N          34.6684   -0.9067   -7.3721 N.am      11 UNK        -0.7361 
     68 O          34.9989   -0.9496   -5.1871 O.2       11 UNK        -0.4986 
     69 C69        33.1006    1.1788   -4.6347 C.3       12 UNK        -0.0947 
     70 S70        31.5215    2.0311   -4.2996 S.3       12 UNK        -0.2240 
     71 C71        30.8493    1.0811   -2.8981 C.3       12 UNK         0.0194 
     72 H72        27.2104   -7.8170    0.7765 H         1 UNK         0.0906 
     73 H73        28.4153   -8.2760    1.9810 H         1 UNK         0.0906 
     74 H74        26.8360   -7.6761    2.4955 H         1 UNK         0.0906 
     75 H75        27.6273   -5.7966   -0.1653 H         1 UNK         0.3140 
     76 H76        28.2698   -3.4950    1.3955 H         1 UNK         0.1085 
     77 H77        30.3686   -2.8987    0.1526 H         1 UNK         0.0836 
     78 H78        30.5809   -4.2547    1.2123 H         1 UNK         0.0836 
     79 H79        32.5149   -3.3322   -1.1992 H         1 UNK         0.0731 
     80 H80        32.4843   -4.3554   -2.6102 H         1 UNK         0.0731 
     81 H81        31.9008   -1.0817   -1.6154 H         1 UNK         0.1312 
     82 H82        29.3416   -0.0395   -4.8912 H         1 UNK         0.1406 
     83 H83        30.1690   -4.1585   -4.0471 H         1 UNK         0.1631 
     84 H84        29.1114   -3.5471   -6.1420 H         1 UNK         0.0717 
     85 H85        29.0882   -1.8730   -6.6326 H         1 UNK         0.0717 
     86 H86        27.1844   -2.9787   -7.8774 H         1 UNK         0.0934 
     87 H87        25.6098   -3.3019   -7.2318 H         1 UNK         0.0934 
     88 H88        25.4652   -1.3981   -8.7467 H         1 UNK         0.0739 
     89 H89        24.4135   -1.3757   -6.2668 H         1 UNK         0.3093 
     90 H90        23.0942    1.7715   -5.7270 H         1 UNK         0.0818 
     91 H91        20.8394    0.7267   -5.8728 H         1 UNK         0.0819 
     92 H92        21.4785    1.0916   -7.4669 H         1 UNK         0.0819 
     93 H93        21.4846   -0.5645   -6.8856 H         1 UNK         0.0819 
     94 H94        23.3955    0.5907   -3.9034 H         1 UNK         0.3041 
     95 H95        22.9076   -1.0983   -2.3426 H         1 UNK         0.0784 
     96 H96        21.9129   -3.3402   -2.9291 H         1 UNK         0.0793 
     97 H97        23.5124   -3.9404   -3.3516 H         1 UNK         0.0793 
     98 H98        23.1489   -3.4843   -1.6895 H         1 UNK         0.0793 
     99 H99        25.4347   -1.7000   -3.6717 H         1 UNK         0.3024 
    100 H100       27.3906   -1.6098   -2.6693 H         1 UNK         0.1171 
    101 H101       28.4330    0.3363   -1.3965 H         1 UNK         0.0786 
    102 H102       27.0284    0.7954   -2.3499 H         1 UNK         0.0786 
    103 H103       26.8889    0.6082   -0.6055 H         1 UNK         0.0786 
    104 H104       28.1316   -1.5576    0.0695 H         1 UNK         0.2977 
    105 H105       26.7043    0.6243   -6.1842 H         1 UNK         0.3127 
    106 H106       29.2773    1.2682   -7.0304 H         1 UNK         0.0770 
    107 H107       27.1933    3.0889   -5.6961 H         1 UNK         0.0814 
    108 H108       28.9303    3.3540   -5.7065 H         1 UNK         0.0814 
    109 H109       28.2640    1.9808   -4.8445 H         1 UNK         0.0814 
    110 H110       26.1908    2.4216   -8.3498 H         1 UNK         0.2983 
    111 H111       27.2284    4.6237   -9.8692 H         1 UNK         0.0947 
    112 H112       24.9959    4.5057  -10.9922 H         1 UNK         0.0806 
    113 H113       24.8286    4.4151   -9.2463 H         1 UNK         0.0806 
    114 H114       24.6768    2.9559  -10.2236 H         1 UNK         0.0806 
    115 H115       27.3159    1.1810  -10.4281 H         1 UNK         0.3000 
    116 H116       28.0403    1.5541  -13.3154 H         1 UNK         0.0850 
    117 H117       27.4512   -0.8554  -13.5302 H         1 UNK         0.0810 
    118 H118       26.0795    0.0810  -12.9598 H         1 UNK         0.0810 
    119 H119       26.9939   -0.9182  -11.8326 H         1 UNK         0.0810 
    120 H120       28.9161   -0.2055  -10.2925 H         1 UNK         0.3040 
    121 H121       31.3342   -1.2990  -11.4772 H         1 UNK         0.0766 
    122 H122       30.2458   -1.4043   -8.6145 H         1 UNK         0.0812 
    123 H123       31.5282   -2.4151   -9.2652 H         1 UNK         0.0812 
    124 H124       29.8921   -2.5756   -9.8827 H         1 UNK         0.0812 
    125 H125       30.6721    1.6565   -9.7981 H         1 UNK         0.3205 
    126 H126       31.8505    3.2543   -8.8149 H         1 UNK         0.0754 
    127 H127       34.0769    3.8131   -9.6940 H         1 UNK         0.0769 
    128 H128       33.0538    3.2813  -11.0167 H         1 UNK         0.0769 
    129 H129       34.2772    2.1975  -10.3551 H         1 UNK         0.0769 
    130 H130       31.6875    0.6123   -7.4943 H         1 UNK         0.2981 
    131 H131       32.2664   -0.4838   -5.6947 H         1 UNK         0.0541 
    132 H132       34.1241   -0.6100   -8.1744 H         1 UNK         0.3459 
    133 H133       35.4998   -1.4585   -7.5099 H         1 UNK         0.3459 
    134 H134       33.8791    1.9338   -4.7510 H         1 UNK         0.0612 
    135 H135       33.3767    0.5943   -3.7556 H         1 UNK         0.0612 
    136 H136       29.8975    1.5317   -2.6195 H         1 UNK         0.0624 
    137 H137       31.5124    1.2058   -2.0407 H         1 UNK         0.0624 
@<TRIPOS>BOND
     1    1    2 1    
     2    1   72 1    
     3    1   73 1    
     4    1   74 1    
     5    2    3 2    
     6    2    4 am   BACKBONE|DICT|INTERRES
     7    4    5 1    
     8    4   75 1    
     9    5    6 1    
    10    5   35 1    
    11    5   76 1    
    12    6    7 1    
    13    6   77 1    
    14    6   78 1    
    15    7    8 1    
    16    8    9 1    
    17    8   79 1    
    18    8   80 1    
    19    9   10 ar   
    20    9   14 ar   
    21   10   11 ar   
    22   10   81 1    
    23   11   12 ar   
    24   11   71 1    
    25   12   13 ar   
    26   12   82 1    
    27   13   14 ar   
    28   13   15 1    
    29   14   83 1    
    30   15   16 1    
    31   15   84 1    
    32   15   85 1    
    33   16   17 1    
    34   17   18 1    
    35   17   86 1    
    36   17   87 1    
    37   18   19 1    
    38   18   37 1    
    39   18   88 1    
    40   19   20 am   BACKBONE|DICT|INTERRES
    41   19   89 1    
    42   20   21 2    
    43   20   22 1    
    44   22   23 1    
    45   22   24 1    
    46   22   90 1    
    47   23   91 1    
    48   23   92 1    
    49   23   93 1    
    50   24   25 am   BACKBONE|DICT|INTERRES
    51   24   94 1    
    52   25   26 2    
    53   25   27 1    
    54   27   28 1    
    55   27   29 1    
    56   27   95 1    
    57   28   96 1    
    58   28   97 1    
    59   28   98 1    
    60   29   30 am   BACKBONE|DICT|INTERRES
    61   29   99 1    
    62   30   31 2    
    63   30   32 1    
    64   32   33 1    
    65   32   34 1    
    66   32  100 1    
    67   33  101 1    
    68   33  102 1    
    69   33  103 1    
    70   34   35 am   BACKBONE|DICT|INTERRES
    71   34  104 1    
    72   35   36 2    
    73   37   38 2    
    74   37   39 am   BACKBONE|DICT|INTERRES
    75   39   40 1    
    76   39  105 1    
    77   40   41 1    
    78   40   42 1    
    79   40  106 1    
    80   41  107 1    
    81   41  108 1    
    82   41  109 1    
    83   42   43 2    
    84   42   44 am   BACKBONE|DICT|INTERRES
    85   44   45 1    
    86   44  110 1    
    87   45   46 1    
    88   45   47 1    
    89   45  111 1    
    90   46  112 1    
    91   46  113 1    
    92   46  114 1    
    93   47   48 2    
    94   47   49 am   BACKBONE|DICT|INTERRES
    95   49   50 1    
    96   49  115 1    
    97   50   51 1    
    98   50   52 1    
    99   50  116 1    
   100   51  117 1    
   101   51  118 1    
   102   51  119 1    
   103   52   53 2    
   104   52   54 am   BACKBONE|DICT|INTERRES
   105   54   55 1    
   106   54  120 1    
   107   55   56 1    
   108   55   57 1    
   109   55  121 1    
   110   56  122 1    
   111   56  123 1    
   112   56  124 1    
   113   57   58 2    
   114   57   59 am   BACKBONE|DICT|INTERRES
   115   59   60 1    
   116   59  125 1    
   117   60   61 1    
   118   60   62 1    
   119   60  126 1    
   120   61  127 1    
   121   61  128 1    
   122   61  129 1    
   123   62   63 2    
   124   62   64 am   BACKBONE|DICT|INTERRES
   125   64   65 1    
   126   64  130 1    
   127   65   66 1    
   128   65   69 1    
   129   65  131 1    
   130   66   67 am   BACKBONE|DICT|INTERRES
   131   66   68 2    
   132   67  132 1    
   133   67  133 1    
   134   69   70 1    
   135   69  134 1    
   136   69  135 1    
   137   70   71 1    
   138   71  136 1    
   139   71  137 1    
@<TRIPOS>SUBSTRUCTURE
     1 UNK         1 GROUP             0       ****    0 ROOT    
