@<TRIPOS>MOLECULE
3R137
137   139    1
SMALL
USER_CHARGES


@<TRIPOS>ATOM
      1 CA         24.8218   -6.5062   -2.7120 C.3       0 UNK        -0.2020 
      2 C          25.2811   -5.3799   -1.7991 C.2       0 UNK         0.4855 
      3 O          24.4515   -4.7322   -1.1607 O.2       0 UNK        -0.5197 
      4 N          26.5973   -5.1362   -1.7482 N.am      1 UNK        -0.4892 
      5 CA         27.2721   -4.1013   -0.9542 C.3       1 UNK         0.0835 
      6 C6         28.8045   -4.2196   -1.1371 C.3       12 UNK        -0.0855 
      7 S7         29.7612   -3.2023    0.0355 S.3       12 UNK        -0.2931 
      8 C8         31.2128   -2.7683   -0.9787 C.3       12 UNK         0.0378 
      9 C9         30.8653   -1.8106   -2.1112 C.ar      12 UNK        -0.0802 
     10 C10        30.8812   -2.2435   -3.4416 C.ar      12 UNK        -0.0944 
     11 C11        30.5801   -1.3556   -4.4787 C.ar      12 UNK        -0.0787 
     12 C12        30.2896   -0.0236   -4.1786 C.ar      12 UNK        -0.0862 
     13 C13        30.2237    0.4140   -2.8509 C.ar      12 UNK        -0.0733 
     14 C14        30.5290   -0.4847   -1.8245 C.ar      12 UNK        -0.0832 
     15 C15        29.8239    1.8444   -2.4921 C.3       12 UNK         0.0240 
     16 S16        28.5617    2.5920   -3.5830 S.3       12 UNK        -0.2522 
     17 C17        27.2042    1.3655   -3.5674 C.3       12 UNK        -0.0967 
     18 CA         26.9872    0.7243   -4.9671 C.3       5 UNK         0.0660 
     19 N          26.6525   -0.7024   -4.8761 N.am      5 UNK        -0.4015 
     20 C          26.6889   -1.5978   -5.8748 C.2       4 UNK         0.4946 
     21 O          27.0670   -1.3318   -7.0146 O.2       4 UNK        -0.5353 
     22 CA         26.1186   -2.9956   -5.5836 C.3       4 UNK         0.0277 
     23 CB         27.2342   -3.9782   -5.1922 C.3       4 UNK        -0.1981 
     24 N          25.0786   -2.9559   -4.5490 N.am      4 UNK        -0.4209 
     25 C          23.8550   -2.4331   -4.7340 C.2       3 UNK         0.4942 
     26 O          23.4530   -2.0185   -5.8211 O.2       3 UNK        -0.5208 
     27 CA         22.9412   -2.3084   -3.5021 C.3       3 UNK         0.0250 
     28 CB         22.0441   -3.5475   -3.3565 C.3       3 UNK        -0.1990 
     29 N          23.6957   -2.0883   -2.2648 N.am      3 UNK        -0.4232 
     30 C          24.2549   -0.9141   -1.9312 C.2       2 UNK         0.4993 
     31 O          24.1238    0.1156   -2.5923 O.2       2 UNK        -0.5286 
     32 CA         25.1525   -0.8859   -0.6789 C.3       2 UNK         0.0209 
     33 CB         24.3288   -0.5243    0.5671 C.3       2 UNK        -0.1931 
     34 N          25.8717   -2.1423   -0.4416 N.am      2 UNK        -0.4546 
     35 C          26.7372   -2.6944   -1.3032 C.2       1 UNK         0.5154 
     36 O          27.0444   -2.1708   -2.3747 O.2       1 UNK        -0.5181 
     37 C          26.0552    1.5600   -5.8825 C.2       5 UNK         0.5014 
     38 O          26.2597    2.7669   -6.0115 O.2       5 UNK        -0.5248 
     39 N          25.1039    0.9212   -6.5808 N.am      6 UNK        -0.4434 
     40 CA         24.5075    1.4468   -7.8122 C.3       6 UNK         0.0363 
     41 CB         23.3605    0.5250   -8.2537 C.3       6 UNK        -0.1936 
     42 C          25.5500    1.5966   -8.9431 C.2       6 UNK         0.5081 
     43 O          25.4153    2.4967   -9.7715 O.2       6 UNK        -0.5248 
     44 N          26.5881    0.7471   -8.9301 N.am      7 UNK        -0.4718 
     45 CA         27.7729    0.8184   -9.7827 C.3       7 UNK         0.0273 
     46 CB         27.9950   -0.5579  -10.4389 C.3       7 UNK        -0.1935 
     47 C          28.9800    1.2673   -8.9388 C.2       7 UNK         0.5018 
     48 O          30.0074    0.5859   -8.9196 O.2       7 UNK        -0.5186 
     49 N          28.8288    2.4046   -8.2409 N.am      8 UNK        -0.4240 
     50 CA         29.8562    3.0414   -7.4081 C.3       8 UNK         0.0235 
     51 CB         29.3113    4.3592   -6.8344 C.3       8 UNK        -0.2000 
     52 C          31.1500    3.3081   -8.1924 C.2       8 UNK         0.4941 
     53 O          31.0836    3.8650   -9.2912 O.2       8 UNK        -0.5273 
     54 N          32.2886    2.8666   -7.6392 N.am      9 UNK        -0.4262 
     55 CA         33.6467    2.8689   -8.2097 C.3       9 UNK         0.0264 
     56 CB         34.1408    4.2989   -8.5036 C.3       9 UNK        -0.1955 
     57 C          33.8262    1.9554   -9.4393 C.2       9 UNK         0.5031 
     58 O          34.8530    1.2820   -9.5385 O.2       9 UNK        -0.5390 
     59 N          32.8268    1.9152  -10.3304 N.am      10 UNK        -0.4204 
     60 CA         32.7522    1.0750  -11.5289 C.3       10 UNK         0.0237 
     61 CB         31.4561    1.3959  -12.2906 C.3       10 UNK        -0.1985 
     62 C          32.8547   -0.4343  -11.2447 C.2       10 UNK         0.4970 
     63 O          33.3576   -1.1671  -12.0976 O.2       10 UNK        -0.4914 
     64 N          32.4128   -0.8667  -10.0560 N.am      11 UNK        -0.4285 
     65 CA         32.6165   -2.2247   -9.5336 C.3       11 UNK         0.1007 
     66 C          34.0979   -2.6205   -9.2457 C.2       11 UNK         0.5703 
     67 N          35.0519   -1.6955   -9.2197 N.am      11 UNK        -0.7361 
     68 O          34.3878   -3.7996   -9.0558 O.2       11 UNK        -0.4986 
     69 C69        31.6865   -2.5160   -8.3279 C.3       12 UNK        -0.0947 
     70 S70        32.0473   -1.5335   -6.8300 S.3       12 UNK        -0.2240 
     71 C71        30.5103   -1.8434   -5.9172 C.3       12 UNK         0.0194 
     72 H72        25.6424   -7.1722   -2.9782 H         1 UNK         0.0906 
     73 H73        24.0538   -7.1012   -2.2184 H         1 UNK         0.0906 
     74 H74        24.4012   -6.0999   -3.6312 H         1 UNK         0.0906 
     75 H75        27.2122   -5.7071   -2.3104 H         1 UNK         0.3140 
     76 H76        27.0436   -4.3045    0.0943 H         1 UNK         0.1085 
     77 H77        29.0811   -3.9743   -2.1632 H         1 UNK         0.0836 
     78 H78        29.1175   -5.2539   -0.9854 H         1 UNK         0.0836 
     79 H79        31.6678   -3.6813   -1.3661 H         1 UNK         0.0731 
     80 H80        31.9633   -2.3037   -0.3375 H         1 UNK         0.0731 
     81 H81        31.1170   -3.2737   -3.6708 H         1 UNK         0.1312 
     82 H82        30.0828    0.6626   -4.9847 H         1 UNK         0.1406 
     83 H83        30.4969   -0.1582   -0.7937 H         1 UNK         0.1631 
     84 H84        30.7165    2.4707   -2.5133 H         1 UNK         0.0717 
     85 H85        29.4442    1.8823   -1.4698 H         1 UNK         0.0717 
     86 H86        27.4455    0.6001   -2.8281 H         1 UNK         0.0934 
     87 H87        26.2923    1.8416   -3.2019 H         1 UNK         0.0934 
     88 H88        27.9392    0.7414   -5.4970 H         1 UNK         0.0739 
     89 H89        26.4157   -1.0473   -3.9523 H         1 UNK         0.3093 
     90 H90        25.6609   -3.3612   -6.5056 H         1 UNK         0.0818 
     91 H91        27.8008   -3.6362   -4.3269 H         1 UNK         0.0819 
     92 H92        26.8347   -4.9671   -4.9683 H         1 UNK         0.0819 
     93 H93        27.9447   -4.0953   -6.0114 H         1 UNK         0.0819 
     94 H94        25.3634   -3.2065   -3.6130 H         1 UNK         0.3041 
     95 H95        22.2909   -1.4458   -3.6649 H         1 UNK         0.0784 
     96 H96        21.4413   -3.6982   -4.2532 H         1 UNK         0.0793 
     97 H97        22.6236   -4.4561   -3.1988 H         1 UNK         0.0793 
     98 H98        21.3554   -3.4410   -2.5182 H         1 UNK         0.0793 
     99 H99        23.8688   -2.9018   -1.6797 H         1 UNK         0.3024 
    100 H100       25.8994   -0.1043   -0.8354 H         1 UNK         0.1171 
    101 H101       24.9656   -0.4074    1.4442 H         1 UNK         0.0786 
    102 H102       23.8004    0.4197    0.4248 H         1 UNK         0.0786 
    103 H103       23.5810   -1.2858    0.7924 H         1 UNK         0.0786 
    104 H104       25.6244   -2.6548    0.3931 H         1 UNK         0.2977 
    105 H105       24.9581   -0.0629   -6.4013 H         1 UNK         0.3127 
    106 H106       24.0966    2.4361   -7.5996 H         1 UNK         0.0770 
    107 H107       23.7138   -0.4846   -8.4684 H         1 UNK         0.0814 
    108 H108       22.8814    0.9036   -9.1575 H         1 UNK         0.0814 
    109 H109       22.5914    0.4523   -7.4844 H         1 UNK         0.0814 
    110 H110       26.6360    0.0393   -8.1984 H         1 UNK         0.2983 
    111 H111       27.6372    1.5574  -10.5752 H         1 UNK         0.0947 
    112 H112       28.8631   -0.5444  -11.0988 H         1 UNK         0.0806 
    113 H113       27.1351   -0.8533  -11.0398 H         1 UNK         0.0806 
    114 H114       28.1650   -1.3351   -9.6922 H         1 UNK         0.0806 
    115 H115       27.9458    2.8900   -8.3103 H         1 UNK         0.3000 
    116 H116       30.0711    2.3642   -6.5807 H         1 UNK         0.0850 
    117 H117       30.0541    4.8455   -6.2005 H         1 UNK         0.0810 
    118 H118       28.4277    4.1948   -6.2196 H         1 UNK         0.0810 
    119 H119       29.0442    5.0632   -7.6237 H         1 UNK         0.0810 
    120 H120       32.2160    2.3958   -6.7476 H         1 UNK         0.3040 
    121 H121       34.2889    2.4589   -7.4284 H         1 UNK         0.0766 
    122 H122       34.0750    4.9310   -7.6181 H         1 UNK         0.0812 
    123 H123       33.5689    4.7763   -9.2997 H         1 UNK         0.0812 
    124 H124       35.1850    4.2902   -8.8188 H         1 UNK         0.0812 
    125 H125       32.0378    2.5328  -10.1495 H         1 UNK         0.3205 
    126 H126       33.5993    1.3424  -12.1636 H         1 UNK         0.0754 
    127 H127       31.3763    0.7971  -13.1990 H         1 UNK         0.0769 
    128 H128       31.4209    2.4438  -12.5894 H         1 UNK         0.0769 
    129 H129       30.5731    1.1912  -11.6848 H         1 UNK         0.0769 
    130 H130       31.9347   -0.2188   -9.4402 H         1 UNK         0.2981 
    131 H131       32.2979   -2.8988  -10.3309 H         1 UNK         0.0541 
    132 H132       34.8396   -0.7153   -9.3720 H         1 UNK         0.3459 
    133 H133       36.0015   -1.9770   -9.0372 H         1 UNK         0.3459 
    134 H134       30.6514   -2.3303   -8.6208 H         1 UNK         0.0612 
    135 H135       31.7335   -3.5735   -8.0620 H         1 UNK         0.0612 
    136 H136       30.2849   -2.9106   -5.9374 H         1 UNK         0.0624 
    137 H137       29.6920   -1.3452   -6.4382 H         1 UNK         0.0624 
@<TRIPOS>BOND
     1    1    2 1    
     2    1   72 1    
     3    1   73 1    
     4    1   74 1    
     5    2    3 2    
     6    2    4 am   BACKBONE|DICT|INTERRES
     7    4    5 1    
     8    4   75 1    
     9    5    6 1    
    10    5   35 1    
    11    5   76 1    
    12    6    7 1    
    13    6   77 1    
    14    6   78 1    
    15    7    8 1    
    16    8    9 1    
    17    8   79 1    
    18    8   80 1    
    19    9   10 ar   
    20    9   14 ar   
    21   10   11 ar   
    22   10   81 1    
    23   11   12 ar   
    24   11   71 1    
    25   12   13 ar   
    26   12   82 1    
    27   13   14 ar   
    28   13   15 1    
    29   14   83 1    
    30   15   16 1    
    31   15   84 1    
    32   15   85 1    
    33   16   17 1    
    34   17   18 1    
    35   17   86 1    
    36   17   87 1    
    37   18   19 1    
    38   18   37 1    
    39   18   88 1    
    40   19   20 am   BACKBONE|DICT|INTERRES
    41   19   89 1    
    42   20   21 2    
    43   20   22 1    
    44   22   23 1    
    45   22   24 1    
    46   22   90 1    
    47   23   91 1    
    48   23   92 1    
    49   23   93 1    
    50   24   25 am   BACKBONE|DICT|INTERRES
    51   24   94 1    
    52   25   26 2    
    53   25   27 1    
    54   27   28 1    
    55   27   29 1    
    56   27   95 1    
    57   28   96 1    
    58   28   97 1    
    59   28   98 1    
    60   29   30 am   BACKBONE|DICT|INTERRES
    61   29   99 1    
    62   30   31 2    
    63   30   32 1    
    64   32   33 1    
    65   32   34 1    
    66   32  100 1    
    67   33  101 1    
    68   33  102 1    
    69   33  103 1    
    70   34   35 am   BACKBONE|DICT|INTERRES
    71   34  104 1    
    72   35   36 2    
    73   37   38 2    
    74   37   39 am   BACKBONE|DICT|INTERRES
    75   39   40 1    
    76   39  105 1    
    77   40   41 1    
    78   40   42 1    
    79   40  106 1    
    80   41  107 1    
    81   41  108 1    
    82   41  109 1    
    83   42   43 2    
    84   42   44 am   BACKBONE|DICT|INTERRES
    85   44   45 1    
    86   44  110 1    
    87   45   46 1    
    88   45   47 1    
    89   45  111 1    
    90   46  112 1    
    91   46  113 1    
    92   46  114 1    
    93   47   48 2    
    94   47   49 am   BACKBONE|DICT|INTERRES
    95   49   50 1    
    96   49  115 1    
    97   50   51 1    
    98   50   52 1    
    99   50  116 1    
   100   51  117 1    
   101   51  118 1    
   102   51  119 1    
   103   52   53 2    
   104   52   54 am   BACKBONE|DICT|INTERRES
   105   54   55 1    
   106   54  120 1    
   107   55   56 1    
   108   55   57 1    
   109   55  121 1    
   110   56  122 1    
   111   56  123 1    
   112   56  124 1    
   113   57   58 2    
   114   57   59 am   BACKBONE|DICT|INTERRES
   115   59   60 1    
   116   59  125 1    
   117   60   61 1    
   118   60   62 1    
   119   60  126 1    
   120   61  127 1    
   121   61  128 1    
   122   61  129 1    
   123   62   63 2    
   124   62   64 am   BACKBONE|DICT|INTERRES
   125   64   65 1    
   126   64  130 1    
   127   65   66 1    
   128   65   69 1    
   129   65  131 1    
   130   66   67 am   BACKBONE|DICT|INTERRES
   131   66   68 2    
   132   67  132 1    
   133   67  133 1    
   134   69   70 1    
   135   69  134 1    
   136   69  135 1    
   137   70   71 1    
   138   71  136 1    
   139   71  137 1    
@<TRIPOS>SUBSTRUCTURE
     1 UNK         1 GROUP             0       ****    0 ROOT    
