@<TRIPOS>MOLECULE
3R137
137   139    1
SMALL
USER_CHARGES


@<TRIPOS>ATOM
      1 CA         26.0746   -4.5873    2.4236 C.3       0 UNK        -0.2020 
      2 C          26.7710   -4.0025    1.2042 C.2       0 UNK         0.4855 
      3 O          27.4123   -2.9568    1.3079 O.2       0 UNK        -0.5197 
      4 N          26.6471   -4.6652    0.0453 N.am      1 UNK        -0.4892 
      5 CA         27.2506   -4.2413   -1.2275 C.3       1 UNK         0.0835 
      6 C6         27.5371   -5.4602   -2.1409 C.3       12 UNK        -0.0855 
      7 S7         28.9039   -5.2869   -3.3463 S.3       12 UNK        -0.2931 
      8 C8         30.3132   -4.5779   -2.4223 C.3       12 UNK         0.0378 
      9 C9         30.5311   -3.0980   -2.7330 C.ar      12 UNK        -0.0802 
     10 C10        31.0609   -2.7159   -3.9710 C.ar      12 UNK        -0.0944 
     11 C11        31.3111   -1.3697   -4.2570 C.ar      12 UNK        -0.0787 
     12 C12        31.0276   -0.3995   -3.2926 C.ar      12 UNK        -0.0862 
     13 C13        30.4700   -0.7587   -2.0617 C.ar      12 UNK        -0.0733 
     14 C14        30.2452   -2.1111   -1.7820 C.ar      12 UNK        -0.0832 
     15 C15        30.1192    0.3020   -1.0197 C.3       12 UNK         0.0240 
     16 S16        29.1548    1.7073   -1.6846 S.3       12 UNK        -0.2522 
     17 C17        27.7532    0.8705   -2.4997 C.3       12 UNK        -0.0967 
     18 CA         27.8801    0.9231   -4.0478 C.3       5 UNK         0.0660 
     19 N          27.5604   -0.3603   -4.6765 N.am      5 UNK        -0.4015 
     20 C          27.7949   -0.6575   -5.9625 C.2       4 UNK         0.4946 
     21 O          28.3453    0.1049   -6.7553 O.2       4 UNK        -0.5353 
     22 CA         27.3008   -2.0203   -6.4648 C.3       4 UNK         0.0277 
     23 CB         28.3322   -3.1099   -6.1572 C.3       4 UNK        -0.1981 
     24 N          26.0130   -2.3830   -5.8747 N.am      4 UNK        -0.4209 
     25 C          24.8500   -1.8035   -6.2004 C.2       3 UNK         0.4942 
     26 O          24.7354   -0.9305   -7.0611 O.2       3 UNK        -0.5208 
     27 CA         23.6151   -2.2456   -5.3977 C.3       3 UNK         0.0250 
     28 CB         23.0736   -3.5853   -5.9219 C.3       3 UNK        -0.1990 
     29 N          23.8749   -2.3453   -3.9578 N.am      3 UNK        -0.4232 
     30 C          24.2098   -1.3050   -3.1821 C.2       2 UNK         0.4993 
     31 O          24.3436   -0.1551   -3.5969 O.2       2 UNK        -0.5286 
     32 CA         24.4752   -1.5909   -1.6977 C.3       2 UNK         0.0209 
     33 CB         23.1547   -1.6364   -0.9123 C.3       2 UNK        -0.1931 
     34 N          25.2543   -2.8017   -1.4147 N.am      2 UNK        -0.4546 
     35 C          26.4554   -3.1130   -1.9281 C.2       1 UNK         0.5154 
     36 O          26.9538   -2.5195   -2.8846 O.2       1 UNK        -0.5181 
     37 C          27.0816    2.0909   -4.6641 C.2       5 UNK         0.5014 
     38 O          27.6573    3.1503   -4.9165 O.2       5 UNK        -0.5248 
     39 N          25.7854    1.8677   -4.9297 N.am      6 UNK        -0.4434 
     40 CA         24.9027    2.8036   -5.6291 C.3       6 UNK         0.0363 
     41 CB         23.4473    2.3217   -5.5211 C.3       6 UNK        -0.1936 
     42 C          25.2948    3.0090   -7.1019 C.2       6 UNK         0.5081 
     43 O          25.2295    4.1390   -7.5871 O.2       6 UNK        -0.5248 
     44 N          25.6985    1.9270   -7.7849 N.am      7 UNK        -0.4718 
     45 CA         26.1965    1.9648   -9.1633 C.3       7 UNK         0.0273 
     46 CB         26.2725    0.5365   -9.7267 C.3       7 UNK        -0.1935 
     47 C          27.5622    2.6614   -9.2859 C.2       7 UNK         0.5018 
     48 O          27.7975    3.3550  -10.2764 O.2       7 UNK        -0.5186 
     49 N          28.4385    2.4436   -8.2938 N.am      8 UNK        -0.4240 
     50 CA         29.8117    2.9392   -8.1298 C.3       8 UNK         0.0235 
     51 CB         29.8688    4.4783   -8.0958 C.3       8 UNK        -0.2000 
     52 C          30.8017    2.3549   -9.1500 C.2       8 UNK         0.4941 
     53 O          31.8312    1.8118   -8.7500 O.2       8 UNK        -0.5273 
     54 N          30.4490    2.4159  -10.4410 N.am      9 UNK        -0.4262 
     55 CA         31.2014    1.8846  -11.5844 C.3       9 UNK         0.0264 
     56 CB         30.5104    2.3357  -12.8819 C.3       9 UNK        -0.1955 
     57 C          31.3909    0.3541  -11.5757 C.2       9 UNK         0.5031 
     58 O          32.2005   -0.1564  -12.3510 O.2       9 UNK        -0.5390 
     59 N          30.6587   -0.3485  -10.7002 N.am      10 UNK        -0.4204 
     60 CA         30.8364   -1.7662  -10.3881 C.3       10 UNK         0.0237 
     61 CB         29.6745   -2.2232   -9.4931 C.3       10 UNK        -0.1985 
     62 C          32.1915   -2.0728   -9.7196 C.2       10 UNK         0.4970 
     63 O          32.7118   -3.1726   -9.9100 O.2       10 UNK        -0.4914 
     64 N          32.7417   -1.1064   -8.9716 N.am      11 UNK        -0.4285 
     65 CA         34.1086   -1.1459   -8.4412 C.3       11 UNK         0.1007 
     66 C          35.0985   -0.5926   -9.4995 C.2       11 UNK         0.5703 
     67 N          36.2143   -1.2731   -9.7247 N.am      11 UNK        -0.7361 
     68 O          34.8852    0.4663  -10.0867 O.2       11 UNK        -0.4986 
     69 C69        34.2152   -0.3582   -7.1096 C.3       12 UNK        -0.0947 
     70 S70        33.6664   -1.3386   -5.6757 S.3       12 UNK        -0.2240 
     71 C71        31.8909   -0.9590   -5.6026 C.3       12 UNK         0.0194 
     72 H72        25.5462   -5.5112    2.1893 H         1 UNK         0.0906 
     73 H73        26.8041   -4.8030    3.2038 H         1 UNK         0.0906 
     74 H74        25.3522   -3.8746    2.8208 H         1 UNK         0.0906 
     75 H75        26.1103   -5.5219    0.0176 H         1 UNK         0.3140 
     76 H76        28.2023   -3.7915   -0.9672 H         1 UNK         0.1085 
     77 H77        27.7997   -6.3226   -1.5256 H         1 UNK         0.0836 
     78 H78        26.6353   -5.7566   -2.6800 H         1 UNK         0.0836 
     79 H79        31.2124   -5.1241   -2.7108 H         1 UNK         0.0731 
     80 H80        30.2013   -4.7529   -1.3517 H         1 UNK         0.0731 
     81 H81        31.2876   -3.4705   -4.7119 H         1 UNK         0.1312 
     82 H82        31.2245    0.6421   -3.5059 H         1 UNK         0.1406 
     83 H83        29.8557   -2.3885   -0.8132 H         1 UNK         0.1631 
     84 H84        31.0430    0.6853   -0.5847 H         1 UNK         0.0717 
     85 H85        29.5526   -0.1398   -0.1984 H         1 UNK         0.0717 
     86 H86        27.7257   -0.1592   -2.1437 H         1 UNK         0.0934 
     87 H87        26.8188    1.3134   -2.1486 H         1 UNK         0.0934 
     88 H88        28.9235    1.1097   -4.3079 H         1 UNK         0.0739 
     89 H89        27.1739   -1.0840   -4.0746 H         1 UNK         0.3093 
     90 H90        27.1784   -1.9600   -7.5481 H         1 UNK         0.0818 
     91 H91        28.5057   -3.1760   -5.0856 H         1 UNK         0.0819 
     92 H92        28.0075   -4.0880   -6.5117 H         1 UNK         0.0819 
     93 H93        29.2934   -2.8938   -6.6218 H         1 UNK         0.0819 
     94 H94        26.0323   -3.0408   -5.1077 H         1 UNK         0.3041 
     95 H95        22.8428   -1.4869   -5.5429 H         1 UNK         0.0784 
     96 H96        22.8618   -3.5279   -6.9906 H         1 UNK         0.0793 
     97 H97        23.7858   -4.3981   -5.7740 H         1 UNK         0.0793 
     98 H98        22.1433   -3.8590   -5.4238 H         1 UNK         0.0793 
     99 H99        23.7984   -3.2579   -3.5327 H         1 UNK         0.3024 
    100 H100       25.0599   -0.7492   -1.3199 H         1 UNK         0.1171 
    101 H101       23.3328   -1.6920    0.1618 H         1 UNK         0.0786 
    102 H102       22.5611   -0.7387   -1.0926 H         1 UNK         0.0786 
    103 H103       22.5436   -2.4939   -1.1968 H         1 UNK         0.0786 
    104 H104       24.9367   -3.3619   -0.6373 H         1 UNK         0.2977 
    105 H105       25.3595    0.9980   -4.6118 H         1 UNK         0.3127 
    106 H106       24.9788    3.7711   -5.1281 H         1 UNK         0.0770 
    107 H107       23.3148    1.3363   -5.9701 H         1 UNK         0.0814 
    108 H108       22.7687    3.0079   -6.0293 H         1 UNK         0.0814 
    109 H109       23.1271    2.2596   -4.4809 H         1 UNK         0.0814 
    110 H110       25.6618    1.0198   -7.3333 H         1 UNK         0.2983 
    111 H111       25.4827    2.5315   -9.7653 H         1 UNK         0.0947 
    112 H112       26.6095    0.5427  -10.7642 H         1 UNK         0.0806 
    113 H113       25.2970    0.0502   -9.7057 H         1 UNK         0.0806 
    114 H114       26.9669   -0.0855   -9.1617 H         1 UNK         0.0806 
    115 H115       28.1682    1.7559   -7.5923 H         1 UNK         0.3000 
    116 H116       30.1281    2.5808   -7.1484 H         1 UNK         0.0850 
    117 H117       30.8794    4.8236   -7.8742 H         1 UNK         0.0810 
    118 H118       29.2123    4.8775   -7.3223 H         1 UNK         0.0810 
    119 H119       29.5757    4.9238   -9.0467 H         1 UNK         0.0810 
    120 H120       29.5550    2.8586  -10.6452 H         1 UNK         0.3040 
    121 H121       32.1995    2.3263  -11.5523 H         1 UNK         0.0766 
    122 H122       30.4551    3.4227  -12.9451 H         1 UNK         0.0812 
    123 H123       29.4953    1.9430  -12.9544 H         1 UNK         0.0812 
    124 H124       31.0582    1.9899  -13.7597 H         1 UNK         0.0812 
    125 H125       30.0128    0.1652  -10.1199 H         1 UNK         0.3205 
    126 H126       30.7955   -2.3268  -11.3243 H         1 UNK         0.0754 
    127 H127       29.7828   -3.2715   -9.2107 H         1 UNK         0.0769 
    128 H128       28.7162   -2.1228  -10.0030 H         1 UNK         0.0769 
    129 H129       29.6284   -1.6364   -8.5755 H         1 UNK         0.0769 
    130 H130       32.2890   -0.2001   -8.9204 H         1 UNK         0.2981 
    131 H131       34.3826   -2.1843   -8.2419 H         1 UNK         0.0541 
    132 H132       36.4064   -2.1360   -9.2398 H         1 UNK         0.3459 
    133 H133       36.8758   -0.9190  -10.3979 H         1 UNK         0.3459 
    134 H134       33.6693    0.5855   -7.1557 H         1 UNK         0.0612 
    135 H135       35.2533   -0.0889   -6.9048 H         1 UNK         0.0612 
    136 H136       31.7330    0.1067   -5.7766 H         1 UNK         0.0624 
    137 H137       31.3732   -1.4836   -6.4064 H         1 UNK         0.0624 
@<TRIPOS>BOND
     1    1    2 1    
     2    1   72 1    
     3    1   73 1    
     4    1   74 1    
     5    2    3 2    
     6    2    4 am   BACKBONE|DICT|INTERRES
     7    4    5 1    
     8    4   75 1    
     9    5    6 1    
    10    5   35 1    
    11    5   76 1    
    12    6    7 1    
    13    6   77 1    
    14    6   78 1    
    15    7    8 1    
    16    8    9 1    
    17    8   79 1    
    18    8   80 1    
    19    9   10 ar   
    20    9   14 ar   
    21   10   11 ar   
    22   10   81 1    
    23   11   12 ar   
    24   11   71 1    
    25   12   13 ar   
    26   12   82 1    
    27   13   14 ar   
    28   13   15 1    
    29   14   83 1    
    30   15   16 1    
    31   15   84 1    
    32   15   85 1    
    33   16   17 1    
    34   17   18 1    
    35   17   86 1    
    36   17   87 1    
    37   18   19 1    
    38   18   37 1    
    39   18   88 1    
    40   19   20 am   BACKBONE|DICT|INTERRES
    41   19   89 1    
    42   20   21 2    
    43   20   22 1    
    44   22   23 1    
    45   22   24 1    
    46   22   90 1    
    47   23   91 1    
    48   23   92 1    
    49   23   93 1    
    50   24   25 am   BACKBONE|DICT|INTERRES
    51   24   94 1    
    52   25   26 2    
    53   25   27 1    
    54   27   28 1    
    55   27   29 1    
    56   27   95 1    
    57   28   96 1    
    58   28   97 1    
    59   28   98 1    
    60   29   30 am   BACKBONE|DICT|INTERRES
    61   29   99 1    
    62   30   31 2    
    63   30   32 1    
    64   32   33 1    
    65   32   34 1    
    66   32  100 1    
    67   33  101 1    
    68   33  102 1    
    69   33  103 1    
    70   34   35 am   BACKBONE|DICT|INTERRES
    71   34  104 1    
    72   35   36 2    
    73   37   38 2    
    74   37   39 am   BACKBONE|DICT|INTERRES
    75   39   40 1    
    76   39  105 1    
    77   40   41 1    
    78   40   42 1    
    79   40  106 1    
    80   41  107 1    
    81   41  108 1    
    82   41  109 1    
    83   42   43 2    
    84   42   44 am   BACKBONE|DICT|INTERRES
    85   44   45 1    
    86   44  110 1    
    87   45   46 1    
    88   45   47 1    
    89   45  111 1    
    90   46  112 1    
    91   46  113 1    
    92   46  114 1    
    93   47   48 2    
    94   47   49 am   BACKBONE|DICT|INTERRES
    95   49   50 1    
    96   49  115 1    
    97   50   51 1    
    98   50   52 1    
    99   50  116 1    
   100   51  117 1    
   101   51  118 1    
   102   51  119 1    
   103   52   53 2    
   104   52   54 am   BACKBONE|DICT|INTERRES
   105   54   55 1    
   106   54  120 1    
   107   55   56 1    
   108   55   57 1    
   109   55  121 1    
   110   56  122 1    
   111   56  123 1    
   112   56  124 1    
   113   57   58 2    
   114   57   59 am   BACKBONE|DICT|INTERRES
   115   59   60 1    
   116   59  125 1    
   117   60   61 1    
   118   60   62 1    
   119   60  126 1    
   120   61  127 1    
   121   61  128 1    
   122   61  129 1    
   123   62   63 2    
   124   62   64 am   BACKBONE|DICT|INTERRES
   125   64   65 1    
   126   64  130 1    
   127   65   66 1    
   128   65   69 1    
   129   65  131 1    
   130   66   67 am   BACKBONE|DICT|INTERRES
   131   66   68 2    
   132   67  132 1    
   133   67  133 1    
   134   69   70 1    
   135   69  134 1    
   136   69  135 1    
   137   70   71 1    
   138   71  136 1    
   139   71  137 1    
@<TRIPOS>SUBSTRUCTURE
     1 UNK         1 GROUP             0       ****    0 ROOT    
