@<TRIPOS>MOLECULE
3R137
137   139    1
SMALL
USER_CHARGES


@<TRIPOS>ATOM
      1 CA         26.0002   -3.1932    0.0294 C.3       0 UNK        -0.2020 
      2 C          25.6295   -3.4179   -1.4281 C.2       0 UNK         0.4855 
      3 O          24.4662   -3.6923   -1.7268 O.2       0 UNK        -0.5197 
      4 N          26.6080   -3.2932   -2.3343 N.am      1 UNK        -0.4892 
      5 CA         26.4898   -3.4838   -3.7868 C.3       1 UNK         0.0835 
      6 C6         26.1248   -4.9367   -4.2200 C.3       12 UNK        -0.0855 
      7 S7         27.1240   -6.2289   -3.3953 S.3       12 UNK        -0.2931 
      8 C8         28.6211   -6.3207   -4.4331 C.3       12 UNK         0.0378 
      9 C9         29.4361   -5.0335   -4.4005 C.ar      12 UNK        -0.0802 
     10 C10        29.7865   -4.3991   -5.5947 C.ar      12 UNK        -0.0944 
     11 C11        30.5057   -3.2000   -5.5878 C.ar      12 UNK        -0.0787 
     12 C12        30.8589   -2.6273   -4.3577 C.ar      12 UNK        -0.0862 
     13 C13        30.5218   -3.2547   -3.1532 C.ar      12 UNK        -0.0733 
     14 C14        29.8270   -4.4664   -3.1829 C.ar      12 UNK        -0.0832 
     15 C15        30.9208   -2.6422   -1.8162 C.3       12 UNK         0.0240 
     16 S16        29.5967   -1.6062   -1.1064 S.3       12 UNK        -0.2522 
     17 C17        29.7236   -0.0992   -2.1260 C.3       12 UNK        -0.0967 
     18 CA         28.5204    0.0190   -3.1008 C.3       5 UNK         0.0660 
     19 N          27.2619    0.4866   -2.4949 N.am      5 UNK        -0.4015 
     20 C          27.0491    1.6963   -1.9511 C.2       4 UNK         0.4946 
     21 O          27.9485    2.4817   -1.6493 O.2       4 UNK        -0.5353 
     22 CA         25.5942    2.1626   -1.7600 C.3       4 UNK         0.0277 
     23 CB         25.2716    3.2989   -2.7461 C.3       4 UNK        -0.1981 
     24 N          24.5867    1.1148   -1.9301 N.am      4 UNK        -0.4209 
     25 C          24.1654    0.2951   -0.9624 C.2       3 UNK         0.4942 
     26 O          24.6665    0.2541    0.1610 O.2       3 UNK        -0.5208 
     27 CA         22.9793   -0.6304   -1.2886 C.3       3 UNK         0.0250 
     28 CB         21.6346    0.1003   -1.1061 C.3       3 UNK        -0.1990 
     29 N          23.0677   -1.2956   -2.5957 N.am      3 UNK        -0.4232 
     30 C          22.9918   -0.7743   -3.8313 C.2       2 UNK         0.4993 
     31 O          22.8014    0.4216   -4.0594 O.2       2 UNK        -0.5286 
     32 CA         23.2406   -1.7594   -4.9950 C.3       2 UNK         0.0209 
     33 CB         23.5027   -1.0528   -6.3446 C.3       2 UNK        -0.1931 
     34 N          24.3151   -2.7120   -4.6757 N.am      2 UNK        -0.4546 
     35 C          25.5839   -2.3898   -4.3834 C.2       1 UNK         0.5154 
     36 O          26.0418   -1.2531   -4.5148 O.2       1 UNK        -0.5181 
     37 C          28.8056    0.8626   -4.3588 C.2       5 UNK         0.5014 
     38 O          29.8183    1.5578   -4.4379 O.2       5 UNK        -0.5248 
     39 N          27.8586    0.8018   -5.3025 N.am      6 UNK        -0.4434 
     40 CA         27.8572    1.5488   -6.5599 C.3       6 UNK         0.0363 
     41 CB         27.0860    2.8688   -6.3717 C.3       6 UNK        -0.1936 
     42 C          27.2940    0.6962   -7.7101 C.2       6 UNK         0.5081 
     43 O          26.7852    1.2467   -8.6865 O.2       6 UNK        -0.5248 
     44 N          27.3928   -0.6362   -7.5867 N.am      7 UNK        -0.4718 
     45 CA         26.9266   -1.6091   -8.5835 C.3       7 UNK         0.0273 
     46 CB         26.8427   -2.9988   -7.9302 C.3       7 UNK        -0.1935 
     47 C          27.7820   -1.6655   -9.8653 C.2       7 UNK         0.5018 
     48 O          27.3533   -2.2804  -10.8427 O.2       7 UNK        -0.5186 
     49 N          28.9637   -1.0402   -9.8451 N.am      8 UNK        -0.4240 
     50 CA         29.8790   -0.9086  -10.9708 C.3       8 UNK         0.0235 
     51 CB         30.9508   -2.0097  -10.8914 C.3       8 UNK        -0.2000 
     52 C          30.5217    0.4781  -10.8993 C.2       8 UNK         0.4941 
     53 O          30.6712    1.0240   -9.8015 O.2       8 UNK        -0.5273 
     54 N          30.9462    0.9984  -12.0585 N.am      9 UNK        -0.4262 
     55 CA         31.6190    2.2968  -12.1994 C.3       9 UNK         0.0264 
     56 CB         31.7755    2.6295  -13.6923 C.3       9 UNK        -0.1955 
     57 C          32.9806    2.3779  -11.4836 C.2       9 UNK         0.5031 
     58 O          33.3999    3.4735  -11.1091 O.2       9 UNK        -0.5390 
     59 N          33.6320    1.2226  -11.2875 N.am      10 UNK        -0.4204 
     60 CA         34.8450    1.0739  -10.4814 C.3       10 UNK         0.0237 
     61 CB         35.4690   -0.3044  -10.7560 C.3       10 UNK        -0.1985 
     62 C          34.5904    1.2562   -8.9733 C.2       10 UNK         0.4970 
     63 O          35.4999    1.6893   -8.2646 O.2       10 UNK        -0.4914 
     64 N          33.3771    0.9236   -8.5134 N.am      11 UNK        -0.4285 
     65 CA         32.9299    1.1182   -7.1287 C.3       11 UNK         0.1007 
     66 C          32.3700    2.5492   -6.9230 C.2       11 UNK         0.5703 
     67 N          31.5039    3.0256   -7.8112 N.am      11 UNK        -0.7361 
     68 O          32.7393    3.2342   -5.9725 O.2       11 UNK        -0.4986 
     69 C69        31.8902    0.0562   -6.6871 C.3       12 UNK        -0.0947 
     70 S70        32.4493   -1.6593   -6.9512 S.3       12 UNK        -0.2240 
     71 C71        30.8591   -2.5542   -6.9281 C.3       12 UNK         0.0194 
     72 H72        27.0328   -2.8645    0.1433 H         1 UNK         0.0906 
     73 H73        25.3547   -2.4344    0.4703 H         1 UNK         0.0906 
     74 H74        25.8732   -4.1169    0.5931 H         1 UNK         0.0906 
     75 H75        27.5350   -3.0462   -2.0144 H         1 UNK         0.3140 
     76 H76        27.4747   -3.2635   -4.1941 H         1 UNK         0.1085 
     77 H77        26.2223   -5.0485   -5.3015 H         1 UNK         0.0836 
     78 H78        25.0849   -5.1643   -3.9824 H         1 UNK         0.0836 
     79 H79        28.3290   -6.5770   -5.4527 H         1 UNK         0.0731 
     80 H80        29.2467   -7.1399   -4.0764 H         1 UNK         0.0731 
     81 H81        29.4960   -4.8421   -6.5377 H         1 UNK         0.1312 
     82 H82        31.4078   -1.6981   -4.3308 H         1 UNK         0.1406 
     83 H83        29.5639   -4.9580   -2.2557 H         1 UNK         0.1631 
     84 H84        31.8371   -2.0586   -1.9177 H         1 UNK         0.0717 
     85 H85        31.1536   -3.4383   -1.1072 H         1 UNK         0.0717 
     86 H86        29.8018    0.7678   -1.4707 H         1 UNK         0.0934 
     87 H87        30.6686   -0.1300   -2.6698 H         1 UNK         0.0934 
     88 H88        28.3339   -0.9850   -3.4804 H         1 UNK         0.0739 
     89 H89        26.4490   -0.0641   -2.7387 H         1 UNK         0.3093 
     90 H90        25.5181    2.5647   -0.7472 H         1 UNK         0.0818 
     91 H91        25.3132    2.9570   -3.7807 H         1 UNK         0.0819 
     92 H92        24.2767    3.7076   -2.5684 H         1 UNK         0.0819 
     93 H93        25.9799    4.1227   -2.6458 H         1 UNK         0.0819 
     94 H94        24.0906    1.0774   -2.8181 H         1 UNK         0.3041 
     95 H95        23.0091   -1.4376   -0.5548 H         1 UNK         0.0784 
     96 H96        21.5420    0.4934   -0.0928 H         1 UNK         0.0793 
     97 H97        21.5286    0.9435   -1.7891 H         1 UNK         0.0793 
     98 H98        20.7929   -0.5724   -1.2705 H         1 UNK         0.0793 
     99 H99        23.3237   -2.2773   -2.5269 H         1 UNK         0.3024 
    100 H100       22.3233   -2.3413   -5.0997 H         1 UNK         0.1171 
    101 H101       23.6852   -1.7738   -7.1412 H         1 UNK         0.0786 
    102 H102       22.6417   -0.4532   -6.6420 H         1 UNK         0.0786 
    103 H103       24.3603   -0.3810   -6.2991 H         1 UNK         0.0786 
    104 H104       24.0194   -3.6634   -4.5052 H         1 UNK         0.2977 
    105 H105       27.0576    0.1924   -5.1382 H         1 UNK         0.3127 
    106 H106       28.8854    1.7894   -6.8390 H         1 UNK         0.0770 
    107 H107       26.0316    2.6884   -6.1598 H         1 UNK         0.0814 
    108 H108       27.1391    3.4860   -7.2693 H         1 UNK         0.0814 
    109 H109       27.4991    3.4570   -5.5520 H         1 UNK         0.0814 
    110 H110       27.8179   -1.0104   -6.7517 H         1 UNK         0.2983 
    111 H111       25.9196   -1.3197   -8.8928 H         1 UNK         0.0947 
    112 H112       26.5380   -3.7565   -8.6536 H         1 UNK         0.0806 
    113 H113       26.1038   -3.0136   -7.1315 H         1 UNK         0.0806 
    114 H114       27.8009   -3.3114   -7.5168 H         1 UNK         0.0806 
    115 H115       29.2097   -0.4810   -9.0397 H         1 UNK         0.3000 
    116 H116       29.3293   -0.9921  -11.9111 H         1 UNK         0.0850 
    117 H117       31.6366   -1.9547  -11.7376 H         1 UNK         0.0810 
    118 H118       30.4992   -3.0018  -10.9070 H         1 UNK         0.0810 
    119 H119       31.5461   -1.9296   -9.9808 H         1 UNK         0.0810 
    120 H120       30.7905    0.4784  -12.9109 H         1 UNK         0.3040 
    121 H121       30.9733    3.0524  -11.7465 H         1 UNK         0.0766 
    122 H122       32.2487    3.6033  -13.8273 H         1 UNK         0.0812 
    123 H123       30.8086    2.6707  -14.1942 H         1 UNK         0.0812 
    124 H124       32.3929    1.8935  -14.2088 H         1 UNK         0.0812 
    125 H125       33.2249    0.3785  -11.6617 H         1 UNK         0.3205 
    126 H126       35.5570    1.8416  -10.7921 H         1 UNK         0.0754 
    127 H127       34.7978   -1.1166  -10.4729 H         1 UNK         0.0769 
    128 H128       36.3926   -0.4334  -10.1898 H         1 UNK         0.0769 
    129 H129       35.7185   -0.4250  -11.8105 H         1 UNK         0.0769 
    130 H130       32.6561    0.6451   -9.1647 H         1 UNK         0.2981 
    131 H131       33.7926    1.0095   -6.4682 H         1 UNK         0.0541 
    132 H132       31.1421    3.9585   -7.7007 H         1 UNK         0.3459 
    133 H133       31.1926    2.4424   -8.5815 H         1 UNK         0.3459 
    134 H134       30.9487    0.2067   -7.2171 H         1 UNK         0.0612 
    135 H135       31.6707    0.1763   -5.6269 H         1 UNK         0.0612 
    136 H136       30.9179   -3.3243   -7.6989 H         1 UNK         0.0624 
    137 H137       30.0475   -1.8928   -7.2278 H         1 UNK         0.0624 
@<TRIPOS>BOND
     1    1    2 1    
     2    1   72 1    
     3    1   73 1    
     4    1   74 1    
     5    2    3 2    
     6    2    4 am   BACKBONE|DICT|INTERRES
     7    4    5 1    
     8    4   75 1    
     9    5    6 1    
    10    5   35 1    
    11    5   76 1    
    12    6    7 1    
    13    6   77 1    
    14    6   78 1    
    15    7    8 1    
    16    8    9 1    
    17    8   79 1    
    18    8   80 1    
    19    9   10 ar   
    20    9   14 ar   
    21   10   11 ar   
    22   10   81 1    
    23   11   12 ar   
    24   11   71 1    
    25   12   13 ar   
    26   12   82 1    
    27   13   14 ar   
    28   13   15 1    
    29   14   83 1    
    30   15   16 1    
    31   15   84 1    
    32   15   85 1    
    33   16   17 1    
    34   17   18 1    
    35   17   86 1    
    36   17   87 1    
    37   18   19 1    
    38   18   37 1    
    39   18   88 1    
    40   19   20 am   BACKBONE|DICT|INTERRES
    41   19   89 1    
    42   20   21 2    
    43   20   22 1    
    44   22   23 1    
    45   22   24 1    
    46   22   90 1    
    47   23   91 1    
    48   23   92 1    
    49   23   93 1    
    50   24   25 am   BACKBONE|DICT|INTERRES
    51   24   94 1    
    52   25   26 2    
    53   25   27 1    
    54   27   28 1    
    55   27   29 1    
    56   27   95 1    
    57   28   96 1    
    58   28   97 1    
    59   28   98 1    
    60   29   30 am   BACKBONE|DICT|INTERRES
    61   29   99 1    
    62   30   31 2    
    63   30   32 1    
    64   32   33 1    
    65   32   34 1    
    66   32  100 1    
    67   33  101 1    
    68   33  102 1    
    69   33  103 1    
    70   34   35 am   BACKBONE|DICT|INTERRES
    71   34  104 1    
    72   35   36 2    
    73   37   38 2    
    74   37   39 am   BACKBONE|DICT|INTERRES
    75   39   40 1    
    76   39  105 1    
    77   40   41 1    
    78   40   42 1    
    79   40  106 1    
    80   41  107 1    
    81   41  108 1    
    82   41  109 1    
    83   42   43 2    
    84   42   44 am   BACKBONE|DICT|INTERRES
    85   44   45 1    
    86   44  110 1    
    87   45   46 1    
    88   45   47 1    
    89   45  111 1    
    90   46  112 1    
    91   46  113 1    
    92   46  114 1    
    93   47   48 2    
    94   47   49 am   BACKBONE|DICT|INTERRES
    95   49   50 1    
    96   49  115 1    
    97   50   51 1    
    98   50   52 1    
    99   50  116 1    
   100   51  117 1    
   101   51  118 1    
   102   51  119 1    
   103   52   53 2    
   104   52   54 am   BACKBONE|DICT|INTERRES
   105   54   55 1    
   106   54  120 1    
   107   55   56 1    
   108   55   57 1    
   109   55  121 1    
   110   56  122 1    
   111   56  123 1    
   112   56  124 1    
   113   57   58 2    
   114   57   59 am   BACKBONE|DICT|INTERRES
   115   59   60 1    
   116   59  125 1    
   117   60   61 1    
   118   60   62 1    
   119   60  126 1    
   120   61  127 1    
   121   61  128 1    
   122   61  129 1    
   123   62   63 2    
   124   62   64 am   BACKBONE|DICT|INTERRES
   125   64   65 1    
   126   64  130 1    
   127   65   66 1    
   128   65   69 1    
   129   65  131 1    
   130   66   67 am   BACKBONE|DICT|INTERRES
   131   66   68 2    
   132   67  132 1    
   133   67  133 1    
   134   69   70 1    
   135   69  134 1    
   136   69  135 1    
   137   70   71 1    
   138   71  136 1    
   139   71  137 1    
@<TRIPOS>SUBSTRUCTURE
     1 UNK         1 GROUP             0       ****    0 ROOT    
