@<TRIPOS>MOLECULE
3R137
137   139    1
SMALL
USER_CHARGES


@<TRIPOS>ATOM
      1 CA         25.9305   -6.3308   -3.1567 C.3       0 UNK        -0.2020 
      2 C          25.8639   -5.7407   -1.7562 C.2       0 UNK         0.4855 
      3 O          25.1838   -6.2911   -0.8904 O.2       0 UNK        -0.5197 
      4 N          26.5651   -4.6225   -1.5261 N.am      1 UNK        -0.4892 
      5 CA         26.6223   -3.9208   -0.2358 C.3       1 UNK         0.0835 
      6 C6         27.9262   -3.0943   -0.0958 C.3       12 UNK        -0.0855 
      7 S7         28.1408   -1.7745   -1.3481 S.3       12 UNK        -0.2931 
      8 C8         29.9629   -1.7395   -1.5159 C.3       12 UNK         0.0378 
      9 C9         30.4660   -2.3127   -2.8390 C.ar      12 UNK        -0.0802 
     10 C10        31.5358   -1.6966   -3.4954 C.ar      12 UNK        -0.0944 
     11 C11        31.9988   -2.1766   -4.7260 C.ar      12 UNK        -0.0787 
     12 C12        31.3803   -3.2943   -5.2991 C.ar      12 UNK        -0.0862 
     13 C13        30.3287   -3.9405   -4.6402 C.ar      12 UNK        -0.0733 
     14 C14        29.8913   -3.4541   -3.4056 C.ar      12 UNK        -0.0832 
     15 C15        29.6850   -5.1876   -5.2343 C.3       12 UNK         0.0240 
     16 S16        28.5380   -4.8275   -6.6059 S.3       12 UNK        -0.2522 
     17 C17        27.2586   -3.7719   -5.8342 C.3       12 UNK        -0.0967 
     18 CA         26.9320   -2.5158   -6.6799 C.3       5 UNK         0.0660 
     19 N          25.7201   -1.8359   -6.2111 N.am      5 UNK        -0.4015 
     20 C          25.0830   -0.8712   -6.8919 C.2       4 UNK         0.4946 
     21 O          25.4134   -0.4914   -8.0147 O.2       4 UNK        -0.5353 
     22 CA         23.9084   -0.1775   -6.1814 C.3       4 UNK         0.0277 
     23 CB         22.6152   -0.9905   -6.3500 C.3       4 UNK        -0.1981 
     24 N          24.1490    0.0723   -4.7567 N.am      4 UNK        -0.4209 
     25 C          25.1535    0.7992   -4.2506 C.2       3 UNK         0.4942 
     26 O          26.0069    1.3441   -4.9494 O.2       3 UNK        -0.5208 
     27 CA         25.2631    0.9222   -2.7183 C.3       3 UNK         0.0250 
     28 CB         24.6113    2.2289   -2.2272 C.3       3 UNK        -0.1990 
     29 N          24.7840   -0.2402   -1.9499 N.am      3 UNK        -0.4232 
     30 C          23.5367   -0.7237   -1.8311 C.2       2 UNK         0.4993 
     31 O          22.5660   -0.2486   -2.4216 O.2       2 UNK        -0.5286 
     32 CA         23.3553   -1.9769   -0.9554 C.3       2 UNK         0.0209 
     33 CB         22.1496   -2.8277   -1.3994 C.3       2 UNK        -0.1931 
     34 N          24.5583   -2.8113   -0.9882 N.am      2 UNK        -0.4546 
     35 C          25.3667   -3.0656    0.0491 C.2       1 UNK         0.5154 
     36 O          25.1672   -2.6431    1.1889 O.2       1 UNK        -0.5181 
     37 C          28.1248   -1.5424   -6.7800 C.2       5 UNK         0.5014 
     38 O          28.8403   -1.5739   -7.7807 O.2       5 UNK        -0.5248 
     39 N          28.2856   -0.6619   -5.7800 N.am      6 UNK        -0.4434 
     40 CA         29.3296    0.3639   -5.7610 C.3       6 UNK         0.0363 
     41 CB         29.3786    1.0538   -4.3883 C.3       6 UNK        -0.1936 
     42 C          29.1577    1.3958   -6.8846 C.2       6 UNK         0.5081 
     43 O          30.1402    1.7567   -7.5330 O.2       6 UNK        -0.5248 
     44 N          27.9070    1.8154   -7.1202 N.am      7 UNK        -0.4718 
     45 CA         27.5152    2.6957   -8.2210 C.3       7 UNK         0.0273 
     46 CB         26.0487    3.1199   -8.0441 C.3       7 UNK        -0.1935 
     47 C          27.7419    2.0576   -9.6023 C.2       7 UNK         0.5018 
     48 O          28.2504    2.7342  -10.4961 O.2       7 UNK        -0.5186 
     49 N          27.3883    0.7713   -9.7464 N.am      8 UNK        -0.4240 
     50 CA         27.6045   -0.0190  -10.9618 C.3       8 UNK         0.0235 
     51 CB         26.8442   -1.3513  -10.8619 C.3       8 UNK        -0.2000 
     52 C          29.0932   -0.2629  -11.2601 C.2       8 UNK         0.4941 
     53 O          29.5056   -0.1267  -12.4128 O.2       8 UNK        -0.5273 
     54 N          29.8726   -0.6037  -10.2237 N.am      9 UNK        -0.4262 
     55 CA         31.3239   -0.7913  -10.3015 C.3       9 UNK         0.0264 
     56 CB         31.8157   -1.4833   -9.0192 C.3       9 UNK        -0.1955 
     57 C          32.0960    0.5211  -10.5214 C.2       9 UNK         0.5031 
     58 O          33.1812    0.4837  -11.1030 O.2       9 UNK        -0.5390 
     59 N          31.5365    1.6389  -10.0329 N.am      10 UNK        -0.4204 
     60 CA         32.1124    2.9880   -9.9907 C.3       10 UNK         0.0237 
     61 CB         32.3158    3.5562  -11.4114 C.3       10 UNK        -0.1985 
     62 C          33.3806    3.0530   -9.1164 C.2       10 UNK         0.4970 
     63 O          34.3129    3.7943   -9.4329 O.2       10 UNK        -0.4914 
     64 N          33.3907    2.2641   -8.0345 N.am      11 UNK        -0.4285 
     65 CA         34.5041    2.1436   -7.0821 C.3       11 UNK         0.1007 
     66 C          34.5880    3.2866   -6.0281 C.2       11 UNK         0.5703 
     67 N          33.6069    4.1766   -5.9303 N.am      11 UNK        -0.7361 
     68 O          35.5726    3.3780   -5.2985 O.2       11 UNK        -0.4986 
     69 C69        34.5446    0.7315   -6.4381 C.3       12 UNK        -0.0947 
     70 S70        33.0124    0.2928   -5.5536 S.3       12 UNK        -0.2240 
     71 C71        33.1884   -1.5157   -5.4176 C.3       12 UNK         0.0194 
     72 H72        24.9914   -6.1605   -3.6825 H         1 UNK         0.0906 
     73 H73        26.7381   -5.8963   -3.7438 H         1 UNK         0.0906 
     74 H74        26.0997   -7.4061   -3.1030 H         1 UNK         0.0906 
     75 H75        27.0953   -4.1960   -2.2701 H         1 UNK         0.3140 
     76 H76        26.6427   -4.6787    0.5513 H         1 UNK         0.1085 
     77 H77        27.9845   -2.6393    0.8951 H         1 UNK         0.0836 
     78 H78        28.7747   -3.7783   -0.1494 H         1 UNK         0.0836 
     79 H79        30.2781   -0.6993   -1.4203 H         1 UNK         0.0731 
     80 H80        30.4394   -2.2713   -0.6917 H         1 UNK         0.0731 
     81 H81        32.0086   -0.8312   -3.0514 H         1 UNK         0.1312 
     82 H82        31.7258   -3.6754   -6.2504 H         1 UNK         0.1406 
     83 H83        29.0958   -3.9644   -2.8849 H         1 UNK         0.1631 
     84 H84        29.1544   -5.7519   -4.4661 H         1 UNK         0.0717 
     85 H85        30.4683   -5.8511   -5.6036 H         1 UNK         0.0717 
     86 H86        26.3619   -4.3850   -5.7316 H         1 UNK         0.0934 
     87 H87        27.5461   -3.4899   -4.8221 H         1 UNK         0.0934 
     88 H88        26.7186   -2.8558   -7.6960 H         1 UNK         0.0739 
     89 H89        25.3737   -2.0853   -5.2975 H         1 UNK         0.3093 
     90 H90        23.7661    0.7932   -6.6609 H         1 UNK         0.0818 
     91 H91        21.7570   -0.4587   -5.9386 H         1 UNK         0.0819 
     92 H92        22.4048   -1.1750   -7.4046 H         1 UNK         0.0819 
     93 H93        22.6769   -1.9600   -5.8542 H         1 UNK         0.0819 
     94 H94        23.4505   -0.2606   -4.0970 H         1 UNK         0.3041 
     95 H95        26.3302    0.9906   -2.4993 H         1 UNK         0.0784 
     96 H96        25.0489    3.0932   -2.7288 H         1 UNK         0.0793 
     97 H97        23.5391    2.2506   -2.4242 H         1 UNK         0.0793 
     98 H98        24.7590    2.3674   -1.1563 H         1 UNK         0.0793 
     99 H99        25.5085   -0.7369   -1.4484 H         1 UNK         0.3024 
    100 H100       23.1639   -1.6197    0.0591 H         1 UNK         0.1171 
    101 H101       22.2484   -3.1605   -2.4334 H         1 UNK         0.0786 
    102 H102       21.2194   -2.2628   -1.3243 H         1 UNK         0.0786 
    103 H103       22.0386   -3.7125   -0.7723 H         1 UNK         0.0786 
    104 H104       24.8101   -3.2060   -1.8828 H         1 UNK         0.2977 
    105 H105       27.6262   -0.6515   -5.0175 H         1 UNK         0.3127 
    106 H106       30.2750   -0.1514   -5.9251 H         1 UNK         0.0770 
    107 H107       29.4569    0.3303   -3.5793 H         1 UNK         0.0814 
    108 H108       28.4955    1.6650   -4.2036 H         1 UNK         0.0814 
    109 H109       30.2469    1.7105   -4.3214 H         1 UNK         0.0814 
    110 H110       27.1701    1.5039   -6.4920 H         1 UNK         0.2983 
    111 H111       28.1387    3.5907   -8.1653 H         1 UNK         0.0947 
    112 H112       25.7443    3.8097   -8.8323 H         1 UNK         0.0806 
    113 H113       25.8951    3.6263   -7.0909 H         1 UNK         0.0806 
    114 H114       25.3731    2.2649   -8.0793 H         1 UNK         0.0806 
    115 H115       26.9135    0.3056   -8.9771 H         1 UNK         0.3000 
    116 H116       27.1888    0.5444  -11.7999 H         1 UNK         0.0850 
    117 H117       26.9763   -1.9457  -11.7668 H         1 UNK         0.0810 
    118 H118       25.7739   -1.1876  -10.7344 H         1 UNK         0.0810 
    119 H119       27.1919   -1.9527  -10.0216 H         1 UNK         0.0810 
    120 H120       29.4401   -0.7777   -9.3165 H         1 UNK         0.3040 
    121 H121       31.5366   -1.4467  -11.1485 H         1 UNK         0.0766 
    122 H122       32.8944   -1.6432   -9.0469 H         1 UNK         0.0812 
    123 H123       31.3450   -2.4579   -8.8885 H         1 UNK         0.0812 
    124 H124       31.5950   -0.8877   -8.1324 H         1 UNK         0.0812 
    125 H125       30.6820    1.5318   -9.4951 H         1 UNK         0.3205 
    126 H126       31.3701    3.6125   -9.4914 H         1 UNK         0.0754 
    127 H127       32.6048    4.6072  -11.3739 H         1 UNK         0.0769 
    128 H128       31.3977    3.4937  -11.9959 H         1 UNK         0.0769 
    129 H129       33.0972    3.0242  -11.9547 H         1 UNK         0.0769 
    130 H130       32.5615    1.7286   -7.8139 H         1 UNK         0.2981 
    131 H131       35.4258    2.2354   -7.6599 H         1 UNK         0.0541 
    132 H132       32.7936    4.1045   -6.5196 H         1 UNK         0.3459 
    133 H133       33.6765    4.9161   -5.2496 H         1 UNK         0.3459 
    134 H134       35.3873    0.6387   -5.7507 H         1 UNK         0.0612 
    135 H135       34.7140   -0.0116   -7.2190 H         1 UNK         0.0612 
    136 H136       33.3281   -1.9305   -6.4166 H         1 UNK         0.0624 
    137 H137       34.0942   -1.7432   -4.8542 H         1 UNK         0.0624 
@<TRIPOS>BOND
     1    1    2 1    
     2    1   72 1    
     3    1   73 1    
     4    1   74 1    
     5    2    3 2    
     6    2    4 am   BACKBONE|DICT|INTERRES
     7    4    5 1    
     8    4   75 1    
     9    5    6 1    
    10    5   35 1    
    11    5   76 1    
    12    6    7 1    
    13    6   77 1    
    14    6   78 1    
    15    7    8 1    
    16    8    9 1    
    17    8   79 1    
    18    8   80 1    
    19    9   10 ar   
    20    9   14 ar   
    21   10   11 ar   
    22   10   81 1    
    23   11   12 ar   
    24   11   71 1    
    25   12   13 ar   
    26   12   82 1    
    27   13   14 ar   
    28   13   15 1    
    29   14   83 1    
    30   15   16 1    
    31   15   84 1    
    32   15   85 1    
    33   16   17 1    
    34   17   18 1    
    35   17   86 1    
    36   17   87 1    
    37   18   19 1    
    38   18   37 1    
    39   18   88 1    
    40   19   20 am   BACKBONE|DICT|INTERRES
    41   19   89 1    
    42   20   21 2    
    43   20   22 1    
    44   22   23 1    
    45   22   24 1    
    46   22   90 1    
    47   23   91 1    
    48   23   92 1    
    49   23   93 1    
    50   24   25 am   BACKBONE|DICT|INTERRES
    51   24   94 1    
    52   25   26 2    
    53   25   27 1    
    54   27   28 1    
    55   27   29 1    
    56   27   95 1    
    57   28   96 1    
    58   28   97 1    
    59   28   98 1    
    60   29   30 am   BACKBONE|DICT|INTERRES
    61   29   99 1    
    62   30   31 2    
    63   30   32 1    
    64   32   33 1    
    65   32   34 1    
    66   32  100 1    
    67   33  101 1    
    68   33  102 1    
    69   33  103 1    
    70   34   35 am   BACKBONE|DICT|INTERRES
    71   34  104 1    
    72   35   36 2    
    73   37   38 2    
    74   37   39 am   BACKBONE|DICT|INTERRES
    75   39   40 1    
    76   39  105 1    
    77   40   41 1    
    78   40   42 1    
    79   40  106 1    
    80   41  107 1    
    81   41  108 1    
    82   41  109 1    
    83   42   43 2    
    84   42   44 am   BACKBONE|DICT|INTERRES
    85   44   45 1    
    86   44  110 1    
    87   45   46 1    
    88   45   47 1    
    89   45  111 1    
    90   46  112 1    
    91   46  113 1    
    92   46  114 1    
    93   47   48 2    
    94   47   49 am   BACKBONE|DICT|INTERRES
    95   49   50 1    
    96   49  115 1    
    97   50   51 1    
    98   50   52 1    
    99   50  116 1    
   100   51  117 1    
   101   51  118 1    
   102   51  119 1    
   103   52   53 2    
   104   52   54 am   BACKBONE|DICT|INTERRES
   105   54   55 1    
   106   54  120 1    
   107   55   56 1    
   108   55   57 1    
   109   55  121 1    
   110   56  122 1    
   111   56  123 1    
   112   56  124 1    
   113   57   58 2    
   114   57   59 am   BACKBONE|DICT|INTERRES
   115   59   60 1    
   116   59  125 1    
   117   60   61 1    
   118   60   62 1    
   119   60  126 1    
   120   61  127 1    
   121   61  128 1    
   122   61  129 1    
   123   62   63 2    
   124   62   64 am   BACKBONE|DICT|INTERRES
   125   64   65 1    
   126   64  130 1    
   127   65   66 1    
   128   65   69 1    
   129   65  131 1    
   130   66   67 am   BACKBONE|DICT|INTERRES
   131   66   68 2    
   132   67  132 1    
   133   67  133 1    
   134   69   70 1    
   135   69  134 1    
   136   69  135 1    
   137   70   71 1    
   138   71  136 1    
   139   71  137 1    
@<TRIPOS>SUBSTRUCTURE
     1 UNK         1 GROUP             0       ****    0 ROOT    
