@<TRIPOS>MOLECULE
3R137
137   139    1
SMALL
USER_CHARGES


@<TRIPOS>ATOM
      1 CA         28.3692   -5.2877    1.2716 C.3       0 UNK        -0.2020 
      2 C          27.7004   -3.9219    1.3126 C.2       0 UNK         0.4855 
      3 O          26.8954   -3.6600    2.2066 O.2       0 UNK        -0.5197 
      4 N          28.0293   -3.0493    0.3514 N.am      1 UNK        -0.4892 
      5 CA         27.4794   -1.6932    0.2259 C.3       1 UNK         0.0835 
      6 C6         28.3127   -0.8194   -0.7438 C.3       12 UNK        -0.0855 
      7 S7         30.0062   -0.4815   -0.1504 S.3       12 UNK        -0.2931 
      8 C8         31.0046   -1.8229   -0.8835 C.3       12 UNK         0.0378 
      9 C9         30.8096   -1.9758   -2.3871 C.ar      12 UNK        -0.0802 
     10 C10        31.1529   -0.9360   -3.2555 C.ar      12 UNK        -0.0944 
     11 C11        30.9984   -1.0847   -4.6364 C.ar      12 UNK        -0.0787 
     12 C12        30.4978   -2.2854   -5.1485 C.ar      12 UNK        -0.0862 
     13 C13        30.1439   -3.3346   -4.2913 C.ar      12 UNK        -0.0733 
     14 C14        30.3071   -3.1705   -2.9124 C.ar      12 UNK        -0.0832 
     15 C15        29.6386   -4.6745   -4.8238 C.3       12 UNK         0.0240 
     16 S16        28.5510   -4.5607   -6.2831 S.3       12 UNK        -0.2522 
     17 C17        27.0868   -3.7051   -5.6116 C.3       12 UNK        -0.0967 
     18 CA         26.5605   -2.6328   -6.5985 C.3       5 UNK         0.0660 
     19 N          25.1292   -2.3848   -6.4301 N.am      5 UNK        -0.4015 
     20 C          24.3046   -2.0101   -7.4188 C.2       4 UNK         0.4946 
     21 O          24.6453   -1.9140   -8.5983 O.2       4 UNK        -0.5353 
     22 CA         22.8488   -1.6817   -7.0388 C.3       4 UNK         0.0277 
     23 CB         21.9494   -2.9110   -7.2470 C.3       4 UNK        -0.1981 
     24 N          22.6926   -1.1951   -5.6658 N.am      4 UNK        -0.4209 
     25 C          23.1832   -0.0338   -5.2110 C.2       3 UNK         0.4942 
     26 O          23.8119    0.7650   -5.9034 O.2       3 UNK        -0.5208 
     27 CA         22.9891    0.2564   -3.7142 C.3       3 UNK         0.0250 
     28 CB         21.6059    0.8769   -3.4604 C.3       3 UNK        -0.1990 
     29 N          23.1752   -0.9100   -2.8414 N.am      3 UNK        -0.4232 
     30 C          24.2736   -1.6772   -2.8009 C.2       2 UNK         0.4993 
     31 O          25.2211   -1.5718   -3.5849 O.2       2 UNK        -0.5286 
     32 CA         24.3284   -2.7622   -1.7155 C.3       2 UNK         0.0209 
     33 CB         24.1451   -4.1551   -2.3397 C.3       2 UNK        -0.1931 
     34 N          25.6149   -2.7089   -1.0206 N.am      2 UNK        -0.4546 
     35 C          26.0062   -1.6978   -0.2302 C.2       1 UNK         0.5154 
     36 O          25.2620   -0.7808    0.1218 O.2       1 UNK        -0.5181 
     37 C          27.3382   -1.3091   -6.4981 C.2       5 UNK         0.5014 
     38 O          28.1770   -1.0342   -7.3560 O.2       5 UNK        -0.5248 
     39 N          27.0134   -0.4891   -5.4855 N.am      6 UNK        -0.4434 
     40 CA         27.6031    0.8323   -5.2447 C.3       6 UNK         0.0363 
     41 CB         26.9817    1.4490   -3.9833 C.3       6 UNK        -0.1936 
     42 C          27.4675    1.7897   -6.4422 C.2       6 UNK         0.5081 
     43 O          28.4134    2.5161   -6.7498 O.2       6 UNK        -0.5248 
     44 N          26.3203    1.7207   -7.1336 N.am      7 UNK        -0.4718 
     45 CA         26.0050    2.4561   -8.3619 C.3       7 UNK         0.0273 
     46 CB         24.5492    2.1622   -8.7607 C.3       7 UNK        -0.1935 
     47 C          26.9464    2.1894   -9.5533 C.2       7 UNK         0.5018 
     48 O          26.9429    2.9895  -10.4900 O.2       7 UNK        -0.5186 
     49 N          27.7388    1.1049   -9.5159 N.am      8 UNK        -0.4240 
     50 CA         28.7718    0.8172  -10.5163 C.3       8 UNK         0.0235 
     51 CB         29.2866   -0.6204  -10.3401 C.3       8 UNK        -0.2000 
     52 C          29.9482    1.8082  -10.4681 C.2       8 UNK         0.4941 
     53 O          30.5890    2.0162  -11.4998 O.2       8 UNK        -0.5273 
     54 N          30.2109    2.3930   -9.2866 N.am      9 UNK        -0.4262 
     55 CA         31.2448    3.3833   -8.9514 C.3       9 UNK         0.0264 
     56 CB         31.0132    4.7086   -9.7026 C.3       9 UNK        -0.1955 
     57 C          32.6941    2.8916   -9.1227 C.2       9 UNK         0.5031 
     58 O          33.4708    2.9529   -8.1696 O.2       9 UNK        -0.5390 
     59 N          33.0367    2.3896  -10.3137 N.am      10 UNK        -0.4204 
     60 CA         34.3459    1.8482  -10.6875 C.3       10 UNK         0.0237 
     61 CB         34.5392    2.0269  -12.2052 C.3       10 UNK        -0.1985 
     62 C          34.5167    0.3837  -10.2345 C.2       10 UNK         0.4970 
     63 O          34.9617   -0.4586  -11.0162 O.2       10 UNK        -0.4914 
     64 N          34.1472    0.1045   -8.9810 N.am      11 UNK        -0.4285 
     65 CA         34.2437   -1.2088   -8.3282 C.3       11 UNK         0.1007 
     66 C          35.6656   -1.5782   -7.8119 C.2       11 UNK         0.5703 
     67 N          36.6390   -0.6746   -7.8304 N.am      11 UNK        -0.7361 
     68 O          35.8950   -2.7148   -7.4050 O.2       11 UNK        -0.4986 
     69 C69        33.1549   -1.3730   -7.2347 C.3       12 UNK        -0.0947 
     70 S70        33.1452   -0.0216   -6.0048 S.3       12 UNK        -0.2240 
     71 C71        31.3818    0.0522   -5.5712 C.3       12 UNK         0.0194 
     72 H72        27.6173   -6.0705    1.1756 H         1 UNK         0.0906 
     73 H73        29.0631   -5.3798    0.4362 H         1 UNK         0.0906 
     74 H74        28.9246   -5.4605    2.1931 H         1 UNK         0.0906 
     75 H75        28.7060   -3.3115   -0.3481 H         1 UNK         0.3140 
     76 H76        27.5029   -1.2266    1.2136 H         1 UNK         0.1085 
     77 H77        28.3334   -1.2536   -1.7447 H         1 UNK         0.0836 
     78 H78        27.8385    0.1571   -0.8631 H         1 UNK         0.0836 
     79 H79        32.0576   -1.6163   -0.6873 H         1 UNK         0.0731 
     80 H80        30.7836   -2.7552   -0.3628 H         1 UNK         0.0731 
     81 H81        31.5468   -0.0120   -2.8544 H         1 UNK         0.1312 
     82 H82        30.3893   -2.4011   -6.2180 H         1 UNK         0.1406 
     83 H83        30.0595   -3.9871   -2.2484 H         1 UNK         0.1631 
     84 H84        29.1038   -5.2197   -4.0443 H         1 UNK         0.0717 
     85 H85        30.5035   -5.2845   -5.0871 H         1 UNK         0.0717 
     86 H86        26.3260   -4.4699   -5.4475 H         1 UNK         0.0934 
     87 H87        27.2971   -3.2806   -4.6275 H         1 UNK         0.0934 
     88 H88        26.7083   -3.0141   -7.6118 H         1 UNK         0.0739 
     89 H89        24.7911   -2.3632   -5.4759 H         1 UNK         0.3093 
     90 H90        22.5093   -0.8911   -7.7118 H         1 UNK         0.0818 
     91 H91        20.9010   -2.6713   -7.0686 H         1 UNK         0.0819 
     92 H92        22.0248   -3.2800   -8.2710 H         1 UNK         0.0819 
     93 H93        22.2254   -3.7320   -6.5840 H         1 UNK         0.0819 
     94 H94        22.1913   -1.7891   -5.0213 H         1 UNK         0.3041 
     95 H95        23.7433    0.9913   -3.4276 H         1 UNK         0.0784 
     96 H96        21.4517    1.7562   -4.0878 H         1 UNK         0.0793 
     97 H97        20.7998    0.1753   -3.6787 H         1 UNK         0.0793 
     98 H98        21.4994    1.1999   -2.4246 H         1 UNK         0.0793 
     99 H99        22.4443   -1.0783   -2.1646 H         1 UNK         0.3024 
    100 H100       23.5334   -2.5915   -0.9860 H         1 UNK         0.1171 
    101 H101       23.1848   -4.2311   -2.8515 H         1 UNK         0.0786 
    102 H102       24.1677   -4.9360   -1.5792 H         1 UNK         0.0786 
    103 H103       24.9232   -4.3775   -3.0713 H         1 UNK         0.0786 
    104 H104       26.2964   -3.4104   -1.2677 H         1 UNK         0.2977 
    105 H105       26.3230   -0.8082   -4.8072 H         1 UNK         0.3127 
    106 H106       28.6664    0.6808   -5.0591 H         1 UNK         0.0770 
    107 H107       25.9210    1.6583   -4.1206 H         1 UNK         0.0814 
    108 H108       27.4704    2.3905   -3.7295 H         1 UNK         0.0814 
    109 H109       27.0841    0.7861   -3.1247 H         1 UNK         0.0814 
    110 H110       25.5765    1.1359   -6.7626 H         1 UNK         0.2983 
    111 H111       26.0883    3.5200   -8.1308 H         1 UNK         0.0947 
    112 H112       24.2767    2.6846   -9.6788 H         1 UNK         0.0806 
    113 H113       23.8531    2.4900   -7.9885 H         1 UNK         0.0806 
    114 H114       24.3866    1.0966   -8.9289 H         1 UNK         0.0806 
    115 H115       27.6946    0.4843   -8.7135 H         1 UNK         0.3000 
    116 H116       28.3132    0.8959  -11.5044 H         1 UNK         0.0850 
    117 H117       29.9750   -0.8875  -11.1431 H         1 UNK         0.0810 
    118 H118       28.4700   -1.3424  -10.3577 H         1 UNK         0.0810 
    119 H119       29.8246   -0.7449   -9.3994 H         1 UNK         0.0810 
    120 H120       29.6027    2.1533   -8.5101 H         1 UNK         0.3040 
    121 H121       31.1113    3.5876   -7.8875 H         1 UNK         0.0766 
    122 H122       30.0190    5.1072   -9.5001 H         1 UNK         0.0812 
    123 H123       31.1121    4.5924  -10.7823 H         1 UNK         0.0812 
    124 H124       31.7352    5.4643   -9.3904 H         1 UNK         0.0812 
    125 H125       32.2855    2.2993  -10.9980 H         1 UNK         0.3205 
    126 H126       35.1219    2.4284  -10.1840 H         1 UNK         0.0754 
    127 H127       35.5287    1.6911  -12.5188 H         1 UNK         0.0769 
    128 H128       34.4489    3.0739  -12.4952 H         1 UNK         0.0769 
    129 H129       33.8031    1.4572  -12.7741 H         1 UNK         0.0769 
    130 H130       33.8303    0.8669   -8.3930 H         1 UNK         0.2981 
    131 H131       34.0246   -1.9597   -9.0897 H         1 UNK         0.0541 
    132 H132       36.4613    0.2614   -8.1563 H         1 UNK         0.3459 
    133 H133       37.5561   -0.9302   -7.5002 H         1 UNK         0.3459 
    134 H134       33.2560   -2.3258   -6.7119 H         1 UNK         0.0612 
    135 H135       32.1787   -1.4070   -7.7205 H         1 UNK         0.0612 
    136 H136       31.1823    1.0098   -5.0881 H         1 UNK         0.0624 
    137 H137       30.7698    0.0364   -6.4748 H         1 UNK         0.0624 
@<TRIPOS>BOND
     1    1    2 1    
     2    1   72 1    
     3    1   73 1    
     4    1   74 1    
     5    2    3 2    
     6    2    4 am   BACKBONE|DICT|INTERRES
     7    4    5 1    
     8    4   75 1    
     9    5    6 1    
    10    5   35 1    
    11    5   76 1    
    12    6    7 1    
    13    6   77 1    
    14    6   78 1    
    15    7    8 1    
    16    8    9 1    
    17    8   79 1    
    18    8   80 1    
    19    9   10 ar   
    20    9   14 ar   
    21   10   11 ar   
    22   10   81 1    
    23   11   12 ar   
    24   11   71 1    
    25   12   13 ar   
    26   12   82 1    
    27   13   14 ar   
    28   13   15 1    
    29   14   83 1    
    30   15   16 1    
    31   15   84 1    
    32   15   85 1    
    33   16   17 1    
    34   17   18 1    
    35   17   86 1    
    36   17   87 1    
    37   18   19 1    
    38   18   37 1    
    39   18   88 1    
    40   19   20 am   BACKBONE|DICT|INTERRES
    41   19   89 1    
    42   20   21 2    
    43   20   22 1    
    44   22   23 1    
    45   22   24 1    
    46   22   90 1    
    47   23   91 1    
    48   23   92 1    
    49   23   93 1    
    50   24   25 am   BACKBONE|DICT|INTERRES
    51   24   94 1    
    52   25   26 2    
    53   25   27 1    
    54   27   28 1    
    55   27   29 1    
    56   27   95 1    
    57   28   96 1    
    58   28   97 1    
    59   28   98 1    
    60   29   30 am   BACKBONE|DICT|INTERRES
    61   29   99 1    
    62   30   31 2    
    63   30   32 1    
    64   32   33 1    
    65   32   34 1    
    66   32  100 1    
    67   33  101 1    
    68   33  102 1    
    69   33  103 1    
    70   34   35 am   BACKBONE|DICT|INTERRES
    71   34  104 1    
    72   35   36 2    
    73   37   38 2    
    74   37   39 am   BACKBONE|DICT|INTERRES
    75   39   40 1    
    76   39  105 1    
    77   40   41 1    
    78   40   42 1    
    79   40  106 1    
    80   41  107 1    
    81   41  108 1    
    82   41  109 1    
    83   42   43 2    
    84   42   44 am   BACKBONE|DICT|INTERRES
    85   44   45 1    
    86   44  110 1    
    87   45   46 1    
    88   45   47 1    
    89   45  111 1    
    90   46  112 1    
    91   46  113 1    
    92   46  114 1    
    93   47   48 2    
    94   47   49 am   BACKBONE|DICT|INTERRES
    95   49   50 1    
    96   49  115 1    
    97   50   51 1    
    98   50   52 1    
    99   50  116 1    
   100   51  117 1    
   101   51  118 1    
   102   51  119 1    
   103   52   53 2    
   104   52   54 am   BACKBONE|DICT|INTERRES
   105   54   55 1    
   106   54  120 1    
   107   55   56 1    
   108   55   57 1    
   109   55  121 1    
   110   56  122 1    
   111   56  123 1    
   112   56  124 1    
   113   57   58 2    
   114   57   59 am   BACKBONE|DICT|INTERRES
   115   59   60 1    
   116   59  125 1    
   117   60   61 1    
   118   60   62 1    
   119   60  126 1    
   120   61  127 1    
   121   61  128 1    
   122   61  129 1    
   123   62   63 2    
   124   62   64 am   BACKBONE|DICT|INTERRES
   125   64   65 1    
   126   64  130 1    
   127   65   66 1    
   128   65   69 1    
   129   65  131 1    
   130   66   67 am   BACKBONE|DICT|INTERRES
   131   66   68 2    
   132   67  132 1    
   133   67  133 1    
   134   69   70 1    
   135   69  134 1    
   136   69  135 1    
   137   70   71 1    
   138   71  136 1    
   139   71  137 1    
@<TRIPOS>SUBSTRUCTURE
     1 UNK         1 GROUP             0       ****    0 ROOT    
