@<TRIPOS>MOLECULE
3R137
137   139    1
SMALL
USER_CHARGES


@<TRIPOS>ATOM
      1 CA         27.9746    1.7390    1.0131 C.3       0 UNK        -0.2020 
      2 C          27.9587    0.2189    0.9428 C.2       0 UNK         0.4855 
      3 O          27.5635   -0.4284    1.9125 O.2       0 UNK        -0.5197 
      4 N          28.4004   -0.3365   -0.1938 N.am      1 UNK        -0.4892 
      5 CA         28.4356   -1.7614   -0.5476 C.3       1 UNK         0.0835 
      6 C6         29.1792   -2.6434    0.4933 C.3       12 UNK        -0.0855 
      7 S7         29.7607   -4.2493   -0.1570 S.3       12 UNK        -0.2931 
      8 C8         31.3843   -3.8339   -0.8789 C.3       12 UNK         0.0378 
      9 C9         31.2304   -3.2427   -2.2725 C.ar      12 UNK        -0.0802 
     10 C10        30.8764   -4.0691   -3.3434 C.ar      12 UNK        -0.0944 
     11 C11        30.6661   -3.5395   -4.6198 C.ar      12 UNK        -0.0787 
     12 C12        30.7968   -2.1584   -4.8100 C.ar      12 UNK        -0.0862 
     13 C13        31.1680   -1.3235   -3.7513 C.ar      12 UNK        -0.0733 
     14 C14        31.4086   -1.8735   -2.4896 C.ar      12 UNK        -0.0832 
     15 C15        31.2712    0.1793   -3.9661 C.3       12 UNK         0.0240 
     16 S16        29.9117    1.0990   -3.1645 S.3       12 UNK        -0.2522 
     17 C17        28.4216    0.2480   -3.7837 C.3       12 UNK        -0.0967 
     18 CA         28.0728    0.5830   -5.2558 C.3       5 UNK         0.0660 
     19 N          27.3871   -0.5340   -5.9059 N.am      5 UNK        -0.4015 
     20 C          27.2343   -0.6787   -7.2294 C.2       4 UNK         0.4946 
     21 O          27.7325    0.0868   -8.0553 O.2       4 UNK        -0.5353 
     22 CA         26.3565   -1.8497   -7.7184 C.3       4 UNK         0.0277 
     23 CB         27.2203   -3.0778   -8.0367 C.3       4 UNK        -0.1981 
     24 N          25.3131   -2.2445   -6.7680 N.am      4 UNK        -0.4209 
     25 C          24.3028   -1.4630   -6.3620 C.2       3 UNK         0.4942 
     26 O          24.0877   -0.3411   -6.8175 O.2       3 UNK        -0.5208 
     27 CA         23.4308   -1.9887   -5.2037 C.3       3 UNK         0.0250 
     28 CB         22.1894   -2.7080   -5.7538 C.3       3 UNK        -0.1990 
     29 N          24.1316   -2.8729   -4.2573 N.am      3 UNK        -0.4232 
     30 C          25.2570   -2.5599   -3.5973 C.2       2 UNK         0.4993 
     31 O          25.8410   -1.4836   -3.7427 O.2       2 UNK        -0.5286 
     32 CA         25.8603   -3.6490   -2.6879 C.3       2 UNK         0.0209 
     33 CB         26.2683   -4.8847   -3.5113 C.3       2 UNK        -0.1931 
     34 N          27.0492   -3.1654   -1.9812 N.am      2 UNK        -0.4546 
     35 C          27.0476   -2.3009   -0.9581 C.2       1 UNK         0.5154 
     36 O          26.0213   -1.9269   -0.3849 O.2       1 UNK        -0.5181 
     37 C          27.2352    1.8698   -5.3705 C.2       5 UNK         0.5014 
     38 O          27.7734    2.9127   -5.7413 O.2       5 UNK        -0.5248 
     39 N          25.9225    1.7598   -5.1099 N.am      6 UNK        -0.4434 
     40 CA         24.9475    2.8455   -5.2655 C.3       6 UNK         0.0363 
     41 CB         23.6000    2.4238   -4.6582 C.3       6 UNK        -0.1936 
     42 C          24.7766    3.2884   -6.7303 C.2       6 UNK         0.5081 
     43 O          24.6173    4.4811   -6.9892 O.2       6 UNK        -0.5248 
     44 N          24.8625    2.3293   -7.6624 N.am      7 UNK        -0.4718 
     45 CA         24.8926    2.5551   -9.1113 C.3       7 UNK         0.0273 
     46 CB         24.5702    1.2325   -9.8258 C.3       7 UNK        -0.1935 
     47 C          26.2279    3.1310   -9.6288 C.2       7 UNK         0.5018 
     48 O          26.3005    3.4848  -10.8063 O.2       7 UNK        -0.5186 
     49 N          27.2492    3.2079   -8.7611 N.am      8 UNK        -0.4240 
     50 CA         28.6057    3.7060   -9.0103 C.3       8 UNK         0.0235 
     51 CB         28.5899    5.2092   -9.3634 C.3       8 UNK        -0.2000 
     52 C          29.4008    2.8542  -10.0189 C.2       8 UNK         0.4941 
     53 O          30.2152    3.3968  -10.7683 O.2       8 UNK        -0.5273 
     54 N          29.1860    1.5301  -10.0012 N.am      9 UNK        -0.4262 
     55 CA         29.9475    0.5618  -10.7982 C.3       9 UNK         0.0264 
     56 CB         29.1045   -0.7065  -11.0001 C.3       9 UNK        -0.1955 
     57 C          31.3076    0.2107  -10.1655 C.2       9 UNK         0.5031 
     58 O          32.1484   -0.3780  -10.8463 O.2       9 UNK        -0.5390 
     59 N          31.4960    0.5551   -8.8814 N.am      10 UNK        -0.4204 
     60 CA         32.7044    0.4410   -8.0477 C.3       10 UNK         0.0237 
     61 CB         33.8673    1.2591   -8.6427 C.3       10 UNK        -0.1985 
     62 C          33.1615   -0.9913   -7.7093 C.2       10 UNK         0.4970 
     63 O          33.7139   -1.1882   -6.6274 O.2       10 UNK        -0.4914 
     64 N          32.9324   -1.9481   -8.6160 N.am      11 UNK        -0.4285 
     65 CA         33.2838   -3.3760   -8.5045 C.3       11 UNK         0.1007 
     66 C          34.8154   -3.6709   -8.5335 C.2       11 UNK         0.5703 
     67 N          35.6599   -2.7424   -8.9681 N.am      11 UNK        -0.7361 
     68 O          35.2487   -4.7695   -8.1927 O.2       11 UNK        -0.4986 
     69 C69        32.5549   -4.1024   -7.3355 C.3       12 UNK        -0.0947 
     70 S70        30.7409   -3.9425   -7.4272 S.3       12 UNK        -0.2240 
     71 C71        30.2579   -4.4834   -5.7514 C.3       12 UNK         0.0194 
     72 H72        26.9649    2.1169    1.1720 H         1 UNK         0.0906 
     73 H73        28.5968    2.0698    1.8443 H         1 UNK         0.0906 
     74 H74        28.3641    2.1879    0.0993 H         1 UNK         0.0906 
     75 H75        28.7062    0.2805   -0.9345 H         1 UNK         0.3140 
     76 H76        29.0261   -1.7693   -1.4591 H         1 UNK         0.1085 
     77 H77        28.5370   -2.8388    1.3538 H         1 UNK         0.0836 
     78 H78        30.0427   -2.1060    0.8882 H         1 UNK         0.0836 
     79 H79        31.9836   -4.7435   -0.9419 H         1 UNK         0.0731 
     80 H80        31.9281   -3.1570   -0.2182 H         1 UNK         0.0731 
     81 H81        30.7450   -5.1294   -3.1739 H         1 UNK         0.1312 
     82 H82        30.6039   -1.7260   -5.7815 H         1 UNK         0.1406 
     83 H83        31.6821   -1.2254   -1.6675 H         1 UNK         0.1631 
     84 H84        31.2806    0.4154   -5.0302 H         1 UNK         0.0717 
     85 H85        32.2227    0.5362   -3.5696 H         1 UNK         0.0717 
     86 H86        28.5692   -0.8252   -3.6669 H         1 UNK         0.0934 
     87 H87        27.5893    0.4810   -3.1162 H         1 UNK         0.0934 
     88 H88        29.0009    0.7451   -5.8075 H         1 UNK         0.0739 
     89 H89        26.8838   -1.1555   -5.2788 H         1 UNK         0.3093 
     90 H90        25.8664   -1.5299   -8.6391 H         1 UNK         0.0818 
     91 H91        28.0268   -2.8315   -8.7264 H         1 UNK         0.0819 
     92 H92        26.6311   -3.8680   -8.5022 H         1 UNK         0.0819 
     93 H93        27.6778   -3.4870   -7.1370 H         1 UNK         0.0819 
     94 H94        25.4034   -3.1570   -6.3466 H         1 UNK         0.3041 
     95 H95        23.0959   -1.1164   -4.6386 H         1 UNK         0.0784 
     96 H96        21.6388   -2.0648   -6.4422 H         1 UNK         0.0793 
     97 H97        22.4552   -3.6153   -6.2978 H         1 UNK         0.0793 
     98 H98        21.5021   -2.9838   -4.9537 H         1 UNK         0.0793 
     99 H99        23.7116   -3.7775   -4.0963 H         1 UNK         0.3024 
    100 H100       25.1057   -3.9351   -1.9516 H         1 UNK         0.1171 
    101 H101       26.7195   -5.6491   -2.8779 H         1 UNK         0.0786 
    102 H102       25.4081   -5.3458   -3.9978 H         1 UNK         0.0786 
    103 H103       26.9887   -4.6316   -4.2904 H         1 UNK         0.0786 
    104 H104       27.9386   -3.4315   -2.3788 H         1 UNK         0.2977 
    105 H105       25.5599    0.8578   -4.8316 H         1 UNK         0.3127 
    106 H106       25.3185    3.7056   -4.7039 H         1 UNK         0.0770 
    107 H107       23.1697    1.5671   -5.1773 H         1 UNK         0.0814 
    108 H108       22.8756    3.2370   -4.7205 H         1 UNK         0.0814 
    109 H109       23.7024    2.1623   -3.6049 H         1 UNK         0.0814 
    110 H110       24.8870    1.3614   -7.3525 H         1 UNK         0.2983 
    111 H111       24.1119    3.2777   -9.3586 H         1 UNK         0.0947 
    112 H112       24.4702    1.3836  -10.9014 H         1 UNK         0.0806 
    113 H113       23.6336    0.8026   -9.4701 H         1 UNK         0.0806 
    114 H114       25.3589    0.4961   -9.6748 H         1 UNK         0.0806 
    115 H115       27.0833    2.8843   -7.8156 H         1 UNK         0.3000 
    116 H116       29.1348    3.6052   -8.0616 H         1 UNK         0.0850 
    117 H117       29.6020    5.6147   -9.3935 H         1 UNK         0.0810 
    118 H118       28.0345    5.7841   -8.6223 H         1 UNK         0.0810 
    119 H119       28.1387    5.3926  -10.3389 H         1 UNK         0.0810 
    120 H120       28.5139    1.1404   -9.3398 H         1 UNK         0.3040 
    121 H121       30.1453    0.9940  -11.7815 H         1 UNK         0.0766 
    122 H122       28.1318   -0.4751  -11.4345 H         1 UNK         0.0812 
    123 H123       28.9380   -1.2271  -10.0587 H         1 UNK         0.0812 
    124 H124       29.6046   -1.4045  -11.6727 H         1 UNK         0.0812 
    125 H125       30.7017    0.9761   -8.4214 H         1 UNK         0.3205 
    126 H126       32.4412    0.9056   -7.0966 H         1 UNK         0.0754 
    127 H127       34.7279    1.2581   -7.9723 H         1 UNK         0.0769 
    128 H128       33.5803    2.2992   -8.7987 H         1 UNK         0.0769 
    129 H129       34.2023    0.8576   -9.5995 H         1 UNK         0.0769 
    130 H130       32.5424   -1.6525   -9.5063 H         1 UNK         0.2981 
    131 H131       32.9145   -3.8232   -9.4279 H         1 UNK         0.0541 
    132 H132       36.6464   -2.9461   -8.9950 H         1 UNK         0.3459 
    133 H133       35.3195   -1.8433   -9.2676 H         1 UNK         0.3459 
    134 H134       32.7836   -5.1693   -7.3433 H         1 UNK         0.0612 
    135 H135       32.9038   -3.7237   -6.3739 H         1 UNK         0.0612 
    136 H136       29.1756   -4.6057   -5.7214 H         1 UNK         0.0624 
    137 H137       30.6825   -5.4741   -5.5819 H         1 UNK         0.0624 
@<TRIPOS>BOND
     1    1    2 1    
     2    1   72 1    
     3    1   73 1    
     4    1   74 1    
     5    2    3 2    
     6    2    4 am   BACKBONE|DICT|INTERRES
     7    4    5 1    
     8    4   75 1    
     9    5    6 1    
    10    5   35 1    
    11    5   76 1    
    12    6    7 1    
    13    6   77 1    
    14    6   78 1    
    15    7    8 1    
    16    8    9 1    
    17    8   79 1    
    18    8   80 1    
    19    9   10 ar   
    20    9   14 ar   
    21   10   11 ar   
    22   10   81 1    
    23   11   12 ar   
    24   11   71 1    
    25   12   13 ar   
    26   12   82 1    
    27   13   14 ar   
    28   13   15 1    
    29   14   83 1    
    30   15   16 1    
    31   15   84 1    
    32   15   85 1    
    33   16   17 1    
    34   17   18 1    
    35   17   86 1    
    36   17   87 1    
    37   18   19 1    
    38   18   37 1    
    39   18   88 1    
    40   19   20 am   BACKBONE|DICT|INTERRES
    41   19   89 1    
    42   20   21 2    
    43   20   22 1    
    44   22   23 1    
    45   22   24 1    
    46   22   90 1    
    47   23   91 1    
    48   23   92 1    
    49   23   93 1    
    50   24   25 am   BACKBONE|DICT|INTERRES
    51   24   94 1    
    52   25   26 2    
    53   25   27 1    
    54   27   28 1    
    55   27   29 1    
    56   27   95 1    
    57   28   96 1    
    58   28   97 1    
    59   28   98 1    
    60   29   30 am   BACKBONE|DICT|INTERRES
    61   29   99 1    
    62   30   31 2    
    63   30   32 1    
    64   32   33 1    
    65   32   34 1    
    66   32  100 1    
    67   33  101 1    
    68   33  102 1    
    69   33  103 1    
    70   34   35 am   BACKBONE|DICT|INTERRES
    71   34  104 1    
    72   35   36 2    
    73   37   38 2    
    74   37   39 am   BACKBONE|DICT|INTERRES
    75   39   40 1    
    76   39  105 1    
    77   40   41 1    
    78   40   42 1    
    79   40  106 1    
    80   41  107 1    
    81   41  108 1    
    82   41  109 1    
    83   42   43 2    
    84   42   44 am   BACKBONE|DICT|INTERRES
    85   44   45 1    
    86   44  110 1    
    87   45   46 1    
    88   45   47 1    
    89   45  111 1    
    90   46  112 1    
    91   46  113 1    
    92   46  114 1    
    93   47   48 2    
    94   47   49 am   BACKBONE|DICT|INTERRES
    95   49   50 1    
    96   49  115 1    
    97   50   51 1    
    98   50   52 1    
    99   50  116 1    
   100   51  117 1    
   101   51  118 1    
   102   51  119 1    
   103   52   53 2    
   104   52   54 am   BACKBONE|DICT|INTERRES
   105   54   55 1    
   106   54  120 1    
   107   55   56 1    
   108   55   57 1    
   109   55  121 1    
   110   56  122 1    
   111   56  123 1    
   112   56  124 1    
   113   57   58 2    
   114   57   59 am   BACKBONE|DICT|INTERRES
   115   59   60 1    
   116   59  125 1    
   117   60   61 1    
   118   60   62 1    
   119   60  126 1    
   120   61  127 1    
   121   61  128 1    
   122   61  129 1    
   123   62   63 2    
   124   62   64 am   BACKBONE|DICT|INTERRES
   125   64   65 1    
   126   64  130 1    
   127   65   66 1    
   128   65   69 1    
   129   65  131 1    
   130   66   67 am   BACKBONE|DICT|INTERRES
   131   66   68 2    
   132   67  132 1    
   133   67  133 1    
   134   69   70 1    
   135   69  134 1    
   136   69  135 1    
   137   70   71 1    
   138   71  136 1    
   139   71  137 1    
@<TRIPOS>SUBSTRUCTURE
     1 UNK         1 GROUP             0       ****    0 ROOT    
