@<TRIPOS>MOLECULE
3R137
137   139    1
SMALL
USER_CHARGES


@<TRIPOS>ATOM
      1 CA         29.9292   -0.6386    2.3879 C.3       0 UNK        -0.2020 
      2 C          29.0773   -1.5354    1.5014 C.2       0 UNK         0.4855 
      3 O          28.1263   -2.1456    1.9918 O.2       0 UNK        -0.5197 
      4 N          29.4195   -1.6148    0.2074 N.am      1 UNK        -0.4892 
      5 CA         28.7355   -2.3939   -0.8389 C.3       1 UNK         0.0835 
      6 C6         28.7458   -3.9333   -0.5800 C.3       12 UNK        -0.0855 
      7 S7         30.4199   -4.5904   -0.2477 S.3       12 UNK        -0.2931 
      8 C8         30.8725   -5.3329   -1.8501 C.3       12 UNK         0.0378 
      9 C9         30.8197   -4.3251   -2.9903 C.ar      12 UNK        -0.0802 
     10 C10        31.6541   -3.2022   -2.9799 C.ar      12 UNK        -0.0944 
     11 C11        31.5892   -2.2610   -4.0108 C.ar      12 UNK        -0.0787 
     12 C12        30.6916   -2.4566   -5.0634 C.ar      12 UNK        -0.0862 
     13 C13        29.8699   -3.5871   -5.0996 C.ar      12 UNK        -0.0733 
     14 C14        29.9366   -4.5169   -4.0579 C.ar      12 UNK        -0.0832 
     15 C15        28.9500   -3.8228   -6.2888 C.3       12 UNK         0.0240 
     16 S16        27.1927   -3.8912   -5.8142 S.3       12 UNK        -0.2522 
     17 C17        26.4127   -3.7952   -7.4656 C.3       12 UNK        -0.0967 
     18 CA         25.7783   -2.4280   -7.8395 C.3       5 UNK         0.0660 
     19 N          24.6055   -2.0946   -7.0290 N.am      5 UNK        -0.4015 
     20 C          23.3995   -1.8052   -7.5425 C.2       4 UNK         0.4946 
     21 O          23.1199   -1.9039   -8.7384 O.2       4 UNK        -0.5353 
     22 CA         22.3050   -1.3068   -6.5795 C.3       4 UNK         0.0277 
     23 CB         21.4150   -2.4775   -6.1310 C.3       4 UNK        -0.1981 
     24 N          22.8103   -0.6088   -5.3966 N.am      4 UNK        -0.4209 
     25 C          23.5789    0.4903   -5.4008 C.2       3 UNK         0.4942 
     26 O          23.9241    1.0862   -6.4196 O.2       3 UNK        -0.5208 
     27 CA         24.1066    0.9653   -4.0354 C.3       3 UNK         0.0250 
     28 CB         23.1782    2.0374   -3.4439 C.3       3 UNK        -0.1990 
     29 N          24.2911   -0.1188   -3.0600 N.am      3 UNK        -0.4232 
     30 C          25.0745   -1.1906   -3.2472 C.2       2 UNK         0.4993 
     31 O          25.7114   -1.3979   -4.2822 O.2       2 UNK        -0.5286 
     32 CA         25.0926   -2.2442   -2.1314 C.3       2 UNK         0.0209 
     33 CB         24.3190   -3.4972   -2.5747 C.3       2 UNK        -0.1931 
     34 N          26.4597   -2.6255   -1.7756 N.am      2 UNK        -0.4546 
     35 C          27.3264   -1.8246   -1.1402 C.2       1 UNK         0.5154 
     36 O          27.0454   -0.6688   -0.8078 O.2       1 UNK        -0.5181 
     37 C          26.7856   -1.2636   -7.8305 C.2       5 UNK         0.5014 
     38 O          27.2916   -0.9053   -8.8949 O.2       5 UNK        -0.5248 
     39 N          27.0534   -0.6807   -6.6513 N.am      6 UNK        -0.4434 
     40 CA         28.1036    0.3160   -6.4225 C.3       6 UNK         0.0363 
     41 CB         28.2925    0.5217   -4.9112 C.3       6 UNK        -0.1936 
     42 C          27.8960    1.6604   -7.1402 C.2       6 UNK         0.5081 
     43 O          28.8695    2.3903   -7.3196 O.2       6 UNK        -0.5248 
     44 N          26.6621    1.9695   -7.5649 N.am      7 UNK        -0.4718 
     45 CA         26.3649    3.1240   -8.4199 C.3       7 UNK         0.0273 
     46 CB         24.8476    3.3642   -8.4529 C.3       7 UNK        -0.1935 
     47 C          26.9157    2.9817   -9.8527 C.2       7 UNK         0.5018 
     48 O          27.1240    4.0011  -10.5120 O.2       7 UNK        -0.5186 
     49 N          27.1337    1.7398  -10.3078 N.am      8 UNK        -0.4240 
     50 CA         27.6991    1.4145  -11.6164 C.3       8 UNK         0.0235 
     51 CB         26.8066    0.3750  -12.3174 C.3       8 UNK        -0.2000 
     52 C          29.1332    0.8962  -11.4560 C.2       8 UNK         0.4941 
     53 O          30.0607    1.4775  -12.0207 O.2       8 UNK        -0.5273 
     54 N          29.2994   -0.1725  -10.6681 N.am      9 UNK        -0.4262 
     55 CA         30.5763   -0.8162  -10.3691 C.3       9 UNK         0.0264 
     56 CB         30.3366   -2.3281  -10.1948 C.3       9 UNK        -0.1955 
     57 C          31.2048   -0.1698   -9.1253 C.2       9 UNK         0.5031 
     58 O          31.3466   -0.8271   -8.0938 O.2       9 UNK        -0.5390 
     59 N          31.5319    1.1233   -9.2330 N.am      10 UNK        -0.4204 
     60 CA         32.1184    1.9238   -8.1583 C.3       10 UNK         0.0237 
     61 CB         32.1130    3.4052   -8.5688 C.3       10 UNK        -0.1985 
     62 C          33.5405    1.4580   -7.8077 C.2       10 UNK         0.4970 
     63 O          34.3541    1.2540   -8.7120 O.2       10 UNK        -0.4914 
     64 N          33.8119    1.3293   -6.5047 N.am      11 UNK        -0.4285 
     65 CA         35.1201    0.9348   -5.9564 C.3       11 UNK         0.1007 
     66 C          36.1400    2.1059   -5.8399 C.2       11 UNK         0.5703 
     67 N          35.7602    3.3535   -6.0919 N.am      11 UNK        -0.7361 
     68 O          37.3057    1.8757   -5.5268 O.2       11 UNK        -0.4986 
     69 C69        34.9661    0.1812   -4.6082 C.3       12 UNK        -0.0947 
     70 S70        34.0851   -1.4053   -4.7955 S.3       12 UNK        -0.2240 
     71 C71        32.4948   -1.0398   -3.9944 C.3       12 UNK         0.0194 
     72 H72        30.3653   -1.2199    3.1999 H         1 UNK         0.0906 
     73 H73        30.7418   -0.1683    1.8344 H         1 UNK         0.0906 
     74 H74        29.3157    0.1494    2.8239 H         1 UNK         0.0906 
     75 H75        30.1993   -1.0633   -0.1213 H         1 UNK         0.3140 
     76 H76        29.3012   -2.2129   -1.7533 H         1 UNK         0.1085 
     77 H77        28.1116   -4.1821    0.2724 H         1 UNK         0.0836 
     78 H78        28.3313   -4.4789   -1.4287 H         1 UNK         0.0836 
     79 H79        31.8828   -5.7382   -1.7796 H         1 UNK         0.0731 
     80 H80        30.2146   -6.1812   -2.0456 H         1 UNK         0.0731 
     81 H81        32.3465   -3.0571   -2.1617 H         1 UNK         0.1312 
     82 H82        30.6504   -1.7350   -5.8663 H         1 UNK         0.1406 
     83 H83        29.2991   -5.3905   -4.0849 H         1 UNK         0.1631 
     84 H84        29.0892   -3.0342   -7.0296 H         1 UNK         0.0717 
     85 H85        29.2270   -4.7580   -6.7772 H         1 UNK         0.0717 
     86 H86        27.1431   -4.0798   -8.2255 H         1 UNK         0.0934 
     87 H87        25.6446   -4.5688   -7.5112 H         1 UNK         0.0934 
     88 H88        25.4727   -2.5281   -8.8832 H         1 UNK         0.0739 
     89 H89        24.7675   -1.9748   -6.0350 H         1 UNK         0.3093 
     90 H90        21.6871   -0.5972   -7.1337 H         1 UNK         0.0818 
     91 H91        20.5740   -2.1313   -5.5299 H         1 UNK         0.0819 
     92 H92        20.9990   -3.0034   -6.9918 H         1 UNK         0.0819 
     93 H93        21.9730   -3.2072   -5.5426 H         1 UNK         0.0819 
     94 H94        22.5841   -1.0177   -4.5022 H         1 UNK         0.3041 
     95 H95        25.0833    1.4202   -4.2093 H         1 UNK         0.0784 
     96 H96        23.0429    2.8641   -4.1430 H         1 UNK         0.0793 
     97 H97        22.1892    1.6369   -3.2175 H         1 UNK         0.0793 
     98 H98        23.5901    2.4573   -2.5261 H         1 UNK         0.0793 
     99 H99        23.7965   -0.0227   -2.1844 H         1 UNK         0.3024 
    100 H100       24.6112   -1.8339   -1.2406 H         1 UNK         0.1171 
    101 H101       24.2907   -4.2473   -1.7841 H         1 UNK         0.0786 
    102 H102       23.2856   -3.2527   -2.8239 H         1 UNK         0.0786 
    103 H103       24.7666   -3.9567   -3.4575 H         1 UNK         0.0786 
    104 H104       26.7643   -3.5371   -2.0822 H         1 UNK         0.2977 
    105 H105       26.5921   -1.0323   -5.8124 H         1 UNK         0.3127 
    106 H106       29.0297   -0.1051   -6.8174 H         1 UNK         0.0770 
    107 H107       27.4026    0.9467   -4.4479 H         1 UNK         0.0814 
    108 H108       29.1226    1.2000   -4.7098 H         1 UNK         0.0814 
    109 H109       28.5134   -0.4196   -4.4070 H         1 UNK         0.0814 
    110 H110       25.8868    1.3598   -7.3286 H         1 UNK         0.2983 
    111 H111       26.8379    4.0042   -7.9786 H         1 UNK         0.0947 
    112 H112       24.5990    4.2208   -9.0809 H         1 UNK         0.0806 
    113 H113       24.4584    3.5722   -7.4562 H         1 UNK         0.0806 
    114 H114       24.3112    2.5010   -8.8492 H         1 UNK         0.0806 
    115 H115       26.9805    0.9611   -9.6757 H         1 UNK         0.3000 
    116 H116       27.7379    2.3029  -12.2504 H         1 UNK         0.0850 
    117 H117       27.2270    0.0860  -13.2816 H         1 UNK         0.0810 
    118 H118       25.8111    0.7770  -12.5062 H         1 UNK         0.0810 
    119 H119       26.6897   -0.5336  -11.7252 H         1 UNK         0.0810 
    120 H120       28.4965   -0.5302  -10.1516 H         1 UNK         0.3040 
    121 H121       31.2688   -0.6795  -11.2025 H         1 UNK         0.0766 
    122 H122       29.9350   -2.7723  -11.1056 H         1 UNK         0.0812 
    123 H123       29.6356   -2.5348   -9.3856 H         1 UNK         0.0812 
    124 H124       31.2672   -2.8476   -9.9629 H         1 UNK         0.0812 
    125 H125       31.3747    1.5822  -10.1211 H         1 UNK         0.3205 
    126 H126       31.4835    1.8091   -7.2772 H         1 UNK         0.0754 
    127 H127       32.5165    4.0336   -7.7740 H         1 UNK         0.0769 
    128 H128       31.0995    3.7537   -8.7712 H         1 UNK         0.0769 
    129 H129       32.7142    3.5798   -9.4622 H         1 UNK         0.0769 
    130 H130       33.0926    1.5330   -5.8280 H         1 UNK         0.2981 
    131 H131       35.5769    0.2352   -6.6593 H         1 UNK         0.0541 
    132 H132       34.8104    3.5579   -6.3551 H         1 UNK         0.3459 
    133 H133       36.4354    4.0981   -6.0174 H         1 UNK         0.3459 
    134 H134       34.4613    0.8072   -3.8704 H         1 UNK         0.0612 
    135 H135       35.9446   -0.0539   -4.1852 H         1 UNK         0.0612 
    136 H136       32.6695   -0.7176   -2.9667 H         1 UNK         0.0624 
    137 H137       32.0122   -0.2064   -4.5072 H         1 UNK         0.0624 
@<TRIPOS>BOND
     1    1    2 1    
     2    1   72 1    
     3    1   73 1    
     4    1   74 1    
     5    2    3 2    
     6    2    4 am   BACKBONE|DICT|INTERRES
     7    4    5 1    
     8    4   75 1    
     9    5    6 1    
    10    5   35 1    
    11    5   76 1    
    12    6    7 1    
    13    6   77 1    
    14    6   78 1    
    15    7    8 1    
    16    8    9 1    
    17    8   79 1    
    18    8   80 1    
    19    9   10 ar   
    20    9   14 ar   
    21   10   11 ar   
    22   10   81 1    
    23   11   12 ar   
    24   11   71 1    
    25   12   13 ar   
    26   12   82 1    
    27   13   14 ar   
    28   13   15 1    
    29   14   83 1    
    30   15   16 1    
    31   15   84 1    
    32   15   85 1    
    33   16   17 1    
    34   17   18 1    
    35   17   86 1    
    36   17   87 1    
    37   18   19 1    
    38   18   37 1    
    39   18   88 1    
    40   19   20 am   BACKBONE|DICT|INTERRES
    41   19   89 1    
    42   20   21 2    
    43   20   22 1    
    44   22   23 1    
    45   22   24 1    
    46   22   90 1    
    47   23   91 1    
    48   23   92 1    
    49   23   93 1    
    50   24   25 am   BACKBONE|DICT|INTERRES
    51   24   94 1    
    52   25   26 2    
    53   25   27 1    
    54   27   28 1    
    55   27   29 1    
    56   27   95 1    
    57   28   96 1    
    58   28   97 1    
    59   28   98 1    
    60   29   30 am   BACKBONE|DICT|INTERRES
    61   29   99 1    
    62   30   31 2    
    63   30   32 1    
    64   32   33 1    
    65   32   34 1    
    66   32  100 1    
    67   33  101 1    
    68   33  102 1    
    69   33  103 1    
    70   34   35 am   BACKBONE|DICT|INTERRES
    71   34  104 1    
    72   35   36 2    
    73   37   38 2    
    74   37   39 am   BACKBONE|DICT|INTERRES
    75   39   40 1    
    76   39  105 1    
    77   40   41 1    
    78   40   42 1    
    79   40  106 1    
    80   41  107 1    
    81   41  108 1    
    82   41  109 1    
    83   42   43 2    
    84   42   44 am   BACKBONE|DICT|INTERRES
    85   44   45 1    
    86   44  110 1    
    87   45   46 1    
    88   45   47 1    
    89   45  111 1    
    90   46  112 1    
    91   46  113 1    
    92   46  114 1    
    93   47   48 2    
    94   47   49 am   BACKBONE|DICT|INTERRES
    95   49   50 1    
    96   49  115 1    
    97   50   51 1    
    98   50   52 1    
    99   50  116 1    
   100   51  117 1    
   101   51  118 1    
   102   51  119 1    
   103   52   53 2    
   104   52   54 am   BACKBONE|DICT|INTERRES
   105   54   55 1    
   106   54  120 1    
   107   55   56 1    
   108   55   57 1    
   109   55  121 1    
   110   56  122 1    
   111   56  123 1    
   112   56  124 1    
   113   57   58 2    
   114   57   59 am   BACKBONE|DICT|INTERRES
   115   59   60 1    
   116   59  125 1    
   117   60   61 1    
   118   60   62 1    
   119   60  126 1    
   120   61  127 1    
   121   61  128 1    
   122   61  129 1    
   123   62   63 2    
   124   62   64 am   BACKBONE|DICT|INTERRES
   125   64   65 1    
   126   64  130 1    
   127   65   66 1    
   128   65   69 1    
   129   65  131 1    
   130   66   67 am   BACKBONE|DICT|INTERRES
   131   66   68 2    
   132   67  132 1    
   133   67  133 1    
   134   69   70 1    
   135   69  134 1    
   136   69  135 1    
   137   70   71 1    
   138   71  136 1    
   139   71  137 1    
@<TRIPOS>SUBSTRUCTURE
     1 UNK         1 GROUP             0       ****    0 ROOT    
