@<TRIPOS>MOLECULE
3R137
137   139    1
SMALL
USER_CHARGES


@<TRIPOS>ATOM
      1 CA         24.8754   -5.3327   -4.3793 C.3       0 UNK        -0.2020 
      2 C          25.3228   -4.3662   -3.2952 C.2       0 UNK         0.4855 
      3 O          25.4552   -3.1715   -3.5625 O.2       0 UNK        -0.5197 
      4 N          25.5138   -4.8895   -2.0755 N.am      1 UNK        -0.4892 
      5 CA         25.9828   -4.2525   -0.8285 C.3       1 UNK         0.0835 
      6 C6         27.4921   -3.8683   -0.8496 C.3       12 UNK        -0.0855 
      7 S7         27.9308   -2.2882   -1.6652 S.3       12 UNK        -0.2931 
      8 C8         29.7450   -2.2821   -1.4620 C.3       12 UNK         0.0378 
      9 C9         30.4870   -2.6394   -2.7460 C.ar      12 UNK        -0.0802 
     10 C10        31.5616   -1.8535   -3.1751 C.ar      12 UNK        -0.0944 
     11 C11        32.2505   -2.1649   -4.3519 C.ar      12 UNK        -0.0787 
     12 C12        31.8503   -3.2734   -5.1076 C.ar      12 UNK        -0.0862 
     13 C13        30.7728   -4.0619   -4.6953 C.ar      12 UNK        -0.0733 
     14 C14        30.1152   -3.7542   -3.5024 C.ar      12 UNK        -0.0832 
     15 C15        30.3140   -5.2479   -5.5322 C.3       12 UNK         0.0240 
     16 S16        29.2918   -4.7438   -6.9562 S.3       12 UNK        -0.2522 
     17 C17        27.8283   -3.9842   -6.1626 C.3       12 UNK        -0.0967 
     18 CA         27.3843   -2.6448   -6.8008 C.3       5 UNK         0.0660 
     19 N          26.1537   -2.1358   -6.1875 N.am      5 UNK        -0.4015 
     20 C          25.3949   -1.1657   -6.7190 C.2       4 UNK         0.4946 
     21 O          25.6219   -0.6289   -7.8028 O.2       4 UNK        -0.5353 
     22 CA         24.2155   -0.6739   -5.8717 C.3       4 UNK         0.0277 
     23 CB         23.0496   -1.6752   -5.9066 C.3       4 UNK        -0.1981 
     24 N          24.6153   -0.4298   -4.4876 N.am      4 UNK        -0.4209 
     25 C          25.3940    0.5820   -4.0810 C.2       3 UNK         0.4942 
     26 O          25.8593    1.4234   -4.8487 O.2       3 UNK        -0.5208 
     27 CA         25.7575    0.6490   -2.5850 C.3       3 UNK         0.0250 
     28 CB         25.6750    2.0829   -2.0216 C.3       3 UNK        -0.1990 
     29 N          25.0221   -0.3139   -1.7552 N.am      3 UNK        -0.4232 
     30 C          23.7200   -0.3176   -1.4243 C.2       2 UNK         0.4993 
     31 O          22.9386    0.5902   -1.7090 O.2       2 UNK        -0.5286 
     32 CA         23.1880   -1.5768   -0.7059 C.3       2 UNK         0.0209 
     33 CB         21.7432   -1.9080   -1.1251 C.3       2 UNK        -0.1931 
     34 N          24.0306   -2.7447   -0.9794 N.am      2 UNK        -0.4546 
     35 C          25.0802   -3.1369   -0.2491 C.2       1 UNK         0.5154 
     36 O          25.3601   -2.6392    0.8424 O.2       1 UNK        -0.5181 
     37 C          28.4834   -1.5610   -6.8028 C.2       5 UNK         0.5014 
     38 O          29.1483   -1.3839   -7.8246 O.2       5 UNK        -0.5248 
     39 N          28.5953   -0.8083   -5.6959 N.am      6 UNK        -0.4434 
     40 CA         29.5084    0.3284   -5.5486 C.3       6 UNK         0.0363 
     41 CB         29.4014    0.9080   -4.1291 C.3       6 UNK        -0.1936 
     42 C          29.2749    1.4274   -6.5991 C.2       6 UNK         0.5081 
     43 O          30.2432    1.9417   -7.1595 O.2       6 UNK        -0.5248 
     44 N          28.0010    1.7497   -6.8628 N.am      7 UNK        -0.4718 
     45 CA         27.5855    2.6818   -7.9093 C.3       7 UNK         0.0273 
     46 CB         26.1132    3.0719   -7.7038 C.3       7 UNK        -0.1935 
     47 C          27.8091    2.1182   -9.3210 C.2       7 UNK         0.5018 
     48 O          28.3583    2.8270  -10.1640 O.2       7 UNK        -0.5186 
     49 N          27.3947    0.8630   -9.5545 N.am      8 UNK        -0.4240 
     50 CA         27.4875    0.1825  -10.8512 C.3       8 UNK         0.0235 
     51 CB         26.7460   -1.1625  -10.7936 C.3       8 UNK        -0.2000 
     52 C          28.9301   -0.0187  -11.3407 C.2       8 UNK         0.4941 
     53 O          29.2096    0.2404  -12.5120 O.2       8 UNK        -0.5273 
     54 N          29.8210   -0.4561  -10.4408 N.am      9 UNK        -0.4262 
     55 CA         31.2500   -0.6273  -10.7183 C.3       9 UNK         0.0264 
     56 CB         31.8118   -1.7113   -9.7851 C.3       9 UNK        -0.1955 
     57 C          32.0533    0.6826  -10.5979 C.2       9 UNK         0.5031 
     58 O          33.2237    0.6970  -10.9816 O.2       9 UNK        -0.5390 
     59 N          31.4279    1.7448  -10.0657 N.am      10 UNK        -0.4204 
     60 CA         31.9702    3.0887   -9.8177 C.3       10 UNK         0.0237 
     61 CB         32.3497    3.7857  -11.1415 C.3       10 UNK        -0.1985 
     62 C          33.1069    3.1319   -8.7742 C.2       10 UNK         0.4970 
     63 O          33.8567    4.1090   -8.7310 O.2       10 UNK        -0.4914 
     64 N          33.2039    2.0890   -7.9439 N.am      11 UNK        -0.4285 
     65 CA         34.1411    1.9652   -6.8203 C.3       11 UNK         0.1007 
     66 C          33.6242    2.5979   -5.4968 C.2       11 UNK         0.5703 
     67 N          32.3546    2.9724   -5.3882 N.am      11 UNK        -0.7361 
     68 O          34.3980    2.7717   -4.5584 O.2       11 UNK        -0.4986 
     69 C69        34.6033    0.4953   -6.6340 C.3       12 UNK        -0.0947 
     70 S70        33.2196   -0.6851   -6.4880 S.3       12 UNK        -0.2240 
     71 C71        33.4303   -1.3070   -4.7936 C.3       12 UNK         0.0194 
     72 H72        25.6635   -6.0533   -4.5959 H         1 UNK         0.0906 
     73 H73        23.9847   -5.8772   -4.0668 H         1 UNK         0.0906 
     74 H74        24.6371   -4.8017   -5.3005 H         1 UNK         0.0906 
     75 H75        25.3316   -5.8790   -1.9712 H         1 UNK         0.3140 
     76 H76        25.8941   -5.0526   -0.0912 H         1 UNK         0.1085 
     77 H77        27.8516   -3.8049    0.1793 H         1 UNK         0.0836 
     78 H78        28.0665   -4.6773   -1.3007 H         1 UNK         0.0836 
     79 H79        30.0370   -1.2872   -1.1225 H         1 UNK         0.0731 
     80 H80        30.0429   -2.9722   -0.6717 H         1 UNK         0.0731 
     81 H81        31.8634   -0.9949   -2.5908 H         1 UNK         0.1312 
     82 H82        32.3683   -3.5132   -6.0262 H         1 UNK         0.1406 
     83 H83        29.2912   -4.3717   -3.1771 H         1 UNK         0.1631 
     84 H84        29.7524   -5.9574   -4.9224 H         1 UNK         0.0717 
     85 H85        31.1863   -5.7895   -5.9010 H         1 UNK         0.0717 
     86 H86        27.0170   -4.7071   -6.2483 H         1 UNK         0.0934 
     87 H87        27.9907   -3.8526   -5.0945 H         1 UNK         0.0934 
     88 H88        27.1518   -2.8544   -7.8469 H         1 UNK         0.0739 
     89 H89        25.9094   -2.4958   -5.2674 H         1 UNK         0.3093 
     90 H90        23.8684    0.2698   -6.2985 H         1 UNK         0.0818 
     91 H91        22.1815   -1.2878   -5.3729 H         1 UNK         0.0819 
     92 H92        22.7365   -1.8724   -6.9328 H         1 UNK         0.0819 
     93 H93        23.3178   -2.6315   -5.4570 H         1 UNK         0.0819 
     94 H94        24.3541   -1.1287   -3.8063 H         1 UNK         0.3041 
     95 H95        26.8017    0.3425   -2.5246 H         1 UNK         0.0784 
     96 H96        26.3653    2.7461   -2.5444 H         1 UNK         0.0793 
     97 H97        24.6772    2.5080   -2.1320 H         1 UNK         0.0793 
     98 H98        25.9391    2.1104   -0.9645 H         1 UNK         0.0793 
     99 H99        25.5629   -1.1264   -1.4866 H         1 UNK         0.3024 
    100 H100       23.1913   -1.3593    0.3648 H         1 UNK         0.1171 
    101 H101       21.6630   -2.0748   -2.2001 H         1 UNK         0.0786 
    102 H102       21.0624   -1.0951   -0.8686 H         1 UNK         0.0786 
    103 H103       21.3788   -2.8018   -0.6185 H         1 UNK         0.0786 
    104 H104       23.9222   -3.1818   -1.8849 H         1 UNK         0.2977 
    105 H105       28.0100   -1.0271   -4.9044 H         1 UNK         0.3127 
    106 H106       30.5191   -0.0563   -5.6850 H         1 UNK         0.0770 
    107 H107       29.4941    0.1343   -3.3683 H         1 UNK         0.0814 
    108 H108       28.4543    1.4228   -3.9702 H         1 UNK         0.0814 
    109 H109       30.1951    1.6334   -3.9497 H         1 UNK         0.0814 
    110 H110       27.2617    1.3357   -6.3033 H         1 UNK         0.2983 
    111 H111       28.1911    3.5861   -7.8148 H         1 UNK         0.0947 
    112 H112       25.7808    3.7684   -8.4746 H         1 UNK         0.0806 
    113 H113       25.9654    3.5596   -6.7400 H         1 UNK         0.0806 
    114 H114       25.4549    2.2029   -7.7400 H         1 UNK         0.0806 
    115 H115       26.9205    0.3563   -8.8099 H         1 UNK         0.3000 
    116 H116       26.9805    0.8138  -11.5840 H         1 UNK         0.0850 
    117 H117       26.7895   -1.6756  -11.7552 H         1 UNK         0.0810 
    118 H118       25.6929   -1.0245  -10.5480 H         1 UNK         0.0810 
    119 H119       27.1793   -1.8287  -10.0473 H         1 UNK         0.0810 
    120 H120       29.5075   -0.6891   -9.4978 H         1 UNK         0.3040 
    121 H121       31.3725   -0.9797  -11.7447 H         1 UNK         0.0766 
    122 H122       32.8845   -1.8461   -9.9302 H         1 UNK         0.0812 
    123 H123       31.3349   -2.6745   -9.9667 H         1 UNK         0.0812 
    124 H124       31.6507   -1.4582   -8.7385 H         1 UNK         0.0812 
    125 H125       30.4679    1.6172   -9.7727 H         1 UNK         0.3205 
    126 H126       31.1484    3.6546   -9.3761 H         1 UNK         0.0754 
    127 H127       32.5988    4.8346  -10.9758 H         1 UNK         0.0769 
    128 H128       31.5236    3.7598  -11.8523 H         1 UNK         0.0769 
    129 H129       33.2143    3.3177  -11.6129 H         1 UNK         0.0769 
    130 H130       32.5068    1.3607   -8.0089 H         1 UNK         0.2981 
    131 H131       35.0364    2.5359   -7.0735 H         1 UNK         0.0541 
    132 H132       31.6969    2.7794   -6.1363 H         1 UNK         0.3459 
    133 H133       32.0400    3.4011   -4.5336 H         1 UNK         0.3459 
    134 H134       35.2738    0.3996   -5.7780 H         1 UNK         0.0612 
    135 H135       35.1930    0.1937   -7.5008 H         1 UNK         0.0612 
    136 H136       34.3460   -1.8967   -4.7375 H         1 UNK         0.0624 
    137 H137       33.5596   -0.4565   -4.1221 H         1 UNK         0.0624 
@<TRIPOS>BOND
     1    1    2 1    
     2    1   72 1    
     3    1   73 1    
     4    1   74 1    
     5    2    3 2    
     6    2    4 am   BACKBONE|DICT|INTERRES
     7    4    5 1    
     8    4   75 1    
     9    5    6 1    
    10    5   35 1    
    11    5   76 1    
    12    6    7 1    
    13    6   77 1    
    14    6   78 1    
    15    7    8 1    
    16    8    9 1    
    17    8   79 1    
    18    8   80 1    
    19    9   10 ar   
    20    9   14 ar   
    21   10   11 ar   
    22   10   81 1    
    23   11   12 ar   
    24   11   71 1    
    25   12   13 ar   
    26   12   82 1    
    27   13   14 ar   
    28   13   15 1    
    29   14   83 1    
    30   15   16 1    
    31   15   84 1    
    32   15   85 1    
    33   16   17 1    
    34   17   18 1    
    35   17   86 1    
    36   17   87 1    
    37   18   19 1    
    38   18   37 1    
    39   18   88 1    
    40   19   20 am   BACKBONE|DICT|INTERRES
    41   19   89 1    
    42   20   21 2    
    43   20   22 1    
    44   22   23 1    
    45   22   24 1    
    46   22   90 1    
    47   23   91 1    
    48   23   92 1    
    49   23   93 1    
    50   24   25 am   BACKBONE|DICT|INTERRES
    51   24   94 1    
    52   25   26 2    
    53   25   27 1    
    54   27   28 1    
    55   27   29 1    
    56   27   95 1    
    57   28   96 1    
    58   28   97 1    
    59   28   98 1    
    60   29   30 am   BACKBONE|DICT|INTERRES
    61   29   99 1    
    62   30   31 2    
    63   30   32 1    
    64   32   33 1    
    65   32   34 1    
    66   32  100 1    
    67   33  101 1    
    68   33  102 1    
    69   33  103 1    
    70   34   35 am   BACKBONE|DICT|INTERRES
    71   34  104 1    
    72   35   36 2    
    73   37   38 2    
    74   37   39 am   BACKBONE|DICT|INTERRES
    75   39   40 1    
    76   39  105 1    
    77   40   41 1    
    78   40   42 1    
    79   40  106 1    
    80   41  107 1    
    81   41  108 1    
    82   41  109 1    
    83   42   43 2    
    84   42   44 am   BACKBONE|DICT|INTERRES
    85   44   45 1    
    86   44  110 1    
    87   45   46 1    
    88   45   47 1    
    89   45  111 1    
    90   46  112 1    
    91   46  113 1    
    92   46  114 1    
    93   47   48 2    
    94   47   49 am   BACKBONE|DICT|INTERRES
    95   49   50 1    
    96   49  115 1    
    97   50   51 1    
    98   50   52 1    
    99   50  116 1    
   100   51  117 1    
   101   51  118 1    
   102   51  119 1    
   103   52   53 2    
   104   52   54 am   BACKBONE|DICT|INTERRES
   105   54   55 1    
   106   54  120 1    
   107   55   56 1    
   108   55   57 1    
   109   55  121 1    
   110   56  122 1    
   111   56  123 1    
   112   56  124 1    
   113   57   58 2    
   114   57   59 am   BACKBONE|DICT|INTERRES
   115   59   60 1    
   116   59  125 1    
   117   60   61 1    
   118   60   62 1    
   119   60  126 1    
   120   61  127 1    
   121   61  128 1    
   122   61  129 1    
   123   62   63 2    
   124   62   64 am   BACKBONE|DICT|INTERRES
   125   64   65 1    
   126   64  130 1    
   127   65   66 1    
   128   65   69 1    
   129   65  131 1    
   130   66   67 am   BACKBONE|DICT|INTERRES
   131   66   68 2    
   132   67  132 1    
   133   67  133 1    
   134   69   70 1    
   135   69  134 1    
   136   69  135 1    
   137   70   71 1    
   138   71  136 1    
   139   71  137 1    
@<TRIPOS>SUBSTRUCTURE
     1 UNK         1 GROUP             0       ****    0 ROOT    
