@<TRIPOS>MOLECULE
3R137
137   139    1
SMALL
USER_CHARGES


@<TRIPOS>ATOM
      1 CA         25.4114   -6.1918   -1.4948 C.3       0 UNK        -0.2020 
      2 C          26.7556   -5.8145   -0.8772 C.2       0 UNK         0.4855 
      3 O          27.1741   -6.4737    0.0726 O.2       0 UNK        -0.5197 
      4 N          27.4863   -4.7961   -1.3562 N.am      1 UNK        -0.4892 
      5 CA         27.1869   -3.8329   -2.4263 C.3       1 UNK         0.0835 
      6 C6         26.9804   -4.4502   -3.8398 C.3       12 UNK        -0.0855 
      7 S7         28.3342   -5.5386   -4.4044 S.3       12 UNK        -0.2931 
      8 C8         29.0949   -4.5554   -5.7405 C.3       12 UNK         0.0378 
      9 C9         30.2133   -3.6735   -5.2067 C.ar      12 UNK        -0.0802 
     10 C10        31.5481   -4.0507   -5.3767 C.ar      12 UNK        -0.0944 
     11 C11        32.5776   -3.2689   -4.8474 C.ar      12 UNK        -0.0787 
     12 C12        32.2606   -2.1117   -4.1295 C.ar      12 UNK        -0.0862 
     13 C13        30.9311   -1.7177   -3.9483 C.ar      12 UNK        -0.0733 
     14 C14        29.9140   -2.4950   -4.5191 C.ar      12 UNK        -0.0832 
     15 C15        30.6599   -0.4746   -3.0973 C.3       12 UNK         0.0240 
     16 S16        28.9132   -0.1943   -2.6323 S.3       12 UNK        -0.2522 
     17 C17        28.4225    1.1120   -3.8043 C.3       12 UNK        -0.0967 
     18 CA         27.8396    0.5490   -5.1202 C.3       5 UNK         0.0660 
     19 N          26.5585   -0.1506   -4.9419 N.am      5 UNK        -0.4015 
     20 C          25.9500   -0.8373   -5.9252 C.2       4 UNK         0.4946 
     21 O          26.4984   -1.0847   -6.9987 O.2       4 UNK        -0.5353 
     22 CA         24.4751   -1.2458   -5.7522 C.3       4 UNK         0.0277 
     23 CB         24.2516   -2.7521   -5.9681 C.3       4 UNK        -0.1981 
     24 N          23.8855   -0.8197   -4.4818 N.am      4 UNK        -0.4209 
     25 C          23.4727    0.4318   -4.2281 C.2       3 UNK         0.4942 
     26 O          23.5495    1.3478   -5.0482 O.2       3 UNK        -0.5208 
     27 CA         22.9298    0.7301   -2.8172 C.3       3 UNK         0.0250 
     28 CB         21.4010    0.5757   -2.7876 C.3       3 UNK        -0.1990 
     29 N          23.5233   -0.1009   -1.7640 N.am      3 UNK        -0.4232 
     30 C          24.8270   -0.1221   -1.4530 C.2       2 UNK         0.4993 
     31 O          25.6625    0.5872   -2.0136 O.2       2 UNK        -0.5286 
     32 CA         25.2981   -1.1336   -0.3865 C.3       2 UNK         0.0209 
     33 CB         24.1488   -1.8636    0.3469 C.3       2 UNK        -0.1931 
     34 N          26.2418   -2.1125   -0.9471 N.am      2 UNK        -0.4546 
     35 C          26.0360   -2.8874   -2.0231 C.2       1 UNK         0.5154 
     36 O          24.9816   -2.8956   -2.6619 O.2       1 UNK        -0.5181 
     37 C          27.7529    1.6654   -6.1812 C.2       5 UNK         0.5014 
     38 O          28.7574    1.9299   -6.8413 O.2       5 UNK        -0.5248 
     39 N          26.5692    2.2736   -6.3598 N.am      6 UNK        -0.4434 
     40 CA         26.2973    3.2305   -7.4345 C.3       6 UNK         0.0363 
     41 CB         24.9504    3.9253   -7.1800 C.3       6 UNK        -0.1936 
     42 C          26.3150    2.5658   -8.8221 C.2       6 UNK         0.5081 
     43 O          26.8853    3.1291   -9.7554 O.2       6 UNK        -0.5248 
     44 N          25.7260    1.3650   -8.9236 N.am      7 UNK        -0.4718 
     45 CA         25.7081    0.5452  -10.1393 C.3       7 UNK         0.0273 
     46 CB         24.6695   -0.5789   -9.9909 C.3       7 UNK        -0.1935 
     47 C          27.0939   -0.0289  -10.4777 C.2       7 UNK         0.5018 
     48 O          27.4737   -0.0470  -11.6485 O.2       7 UNK        -0.5186 
     49 N          27.8368   -0.4474   -9.4436 N.am      8 UNK        -0.4240 
     50 CA         29.2229   -0.9152   -9.5351 C.3       8 UNK         0.0235 
     51 CB         29.5558   -1.7356   -8.2776 C.3       8 UNK        -0.2000 
     52 C          30.2540    0.2143   -9.7268 C.2       8 UNK         0.4941 
     53 O          31.4358   -0.0936   -9.8819 O.2       8 UNK        -0.5273 
     54 N          29.8144    1.4827   -9.6783 N.am      9 UNK        -0.4262 
     55 CA         30.6074    2.7133   -9.7953 C.3       9 UNK         0.0264 
     56 CB         31.1180    2.8888  -11.2408 C.3       9 UNK        -0.1955 
     57 C          31.7340    2.7920   -8.7468 C.2       9 UNK         0.5031 
     58 O          32.8833    3.0750   -9.0920 O.2       9 UNK        -0.5390 
     59 N          31.3866    2.4810   -7.4885 N.am      10 UNK        -0.4204 
     60 CA         32.2715    2.3739   -6.3203 C.3       10 UNK         0.0237 
     61 CB         32.7643    3.7699   -5.8854 C.3       10 UNK        -0.1985 
     62 C          33.4231    1.3641   -6.5165 C.2       10 UNK         0.4970 
     63 O          34.5217    1.5774   -6.0009 O.2       10 UNK        -0.4914 
     64 N          33.1447    0.2907   -7.2683 N.am      11 UNK        -0.4285 
     65 CA         34.0923   -0.7394   -7.7180 C.3       11 UNK         0.1007 
     66 C          35.0555   -0.2816   -8.8569 C.2       11 UNK         0.5703 
     67 N          34.8884    0.8946   -9.4519 N.am      11 UNK        -0.7361 
     68 O          35.9640   -1.0192   -9.2322 O.2       11 UNK        -0.4986 
     69 C69        34.8293   -1.4585   -6.5433 C.3       12 UNK        -0.0947 
     70 S70        34.7037   -3.2753   -6.6481 S.3       12 UNK        -0.2240 
     71 C71        34.0281   -3.7032   -5.0113 C.3       12 UNK         0.0194 
     72 H72        24.7808   -5.3287   -1.6923 H         1 UNK         0.0906 
     73 H73        25.5631   -6.7417   -2.4228 H         1 UNK         0.0906 
     74 H74        24.8573   -6.8415   -0.8176 H         1 UNK         0.0906 
     75 H75        28.3745   -4.6314   -0.9033 H         1 UNK         0.3140 
     76 H76        28.0723   -3.2004   -2.4852 H         1 UNK         0.1085 
     77 H77        26.0539   -5.0215   -3.8907 H         1 UNK         0.0836 
     78 H78        26.8583   -3.6464   -4.5661 H         1 UNK         0.0836 
     79 H79        28.3442   -3.9518   -6.2519 H         1 UNK         0.0731 
     80 H80        29.4874   -5.2415   -6.4927 H         1 UNK         0.0731 
     81 H81        31.7887   -4.9603   -5.9100 H         1 UNK         0.1312 
     82 H82        33.0543   -1.5216   -3.6918 H         1 UNK         0.1406 
     83 H83        28.8786   -2.2144   -4.4086 H         1 UNK         0.1631 
     84 H84        31.0652    0.4003   -3.6056 H         1 UNK         0.0717 
     85 H85        31.2246   -0.5685   -2.1685 H         1 UNK         0.0717 
     86 H86        29.2873    1.7505   -3.9963 H         1 UNK         0.0934 
     87 H87        27.6924    1.7562   -3.3111 H         1 UNK         0.0934 
     88 H88        28.5519   -0.1758   -5.5136 H         1 UNK         0.0739 
     89 H89        26.0768    0.0133   -4.0646 H         1 UNK         0.3093 
     90 H90        23.9380   -0.7377   -6.5562 H         1 UNK         0.0818 
     91 H91        23.1885   -2.9811   -6.0414 H         1 UNK         0.0819 
     92 H92        24.7164   -3.0933   -6.8942 H         1 UNK         0.0819 
     93 H93        24.6587   -3.3523   -5.1589 H         1 UNK         0.0819 
     94 H94        23.8760   -1.5088   -3.7359 H         1 UNK         0.3041 
     95 H95        23.1729    1.7704   -2.5909 H         1 UNK         0.0784 
     96 H96        20.9309    1.2034   -3.5462 H         1 UNK         0.0793 
     97 H97        21.0946   -0.4533   -2.9805 H         1 UNK         0.0793 
     98 H98        20.9897    0.8747   -1.8232 H         1 UNK         0.0793 
     99 H99        22.9046   -0.7339   -1.2780 H         1 UNK         0.3024 
    100 H100       25.8491   -0.5507    0.3536 H         1 UNK         0.1171 
    101 H101       24.5399   -2.5062    1.1359 H         1 UNK         0.0786 
    102 H102       23.5617   -2.4935   -0.3227 H         1 UNK         0.0786 
    103 H103       23.4699   -1.1559    0.8249 H         1 UNK         0.0786 
    104 H104       27.1434   -2.1563   -0.4927 H         1 UNK         0.2977 
    105 H105       25.7863    2.0123   -5.7744 H         1 UNK         0.3127 
    106 H106       27.0816    3.9908   -7.4191 H         1 UNK         0.0770 
    107 H107       24.1233    3.2143   -7.1603 H         1 UNK         0.0814 
    108 H108       24.7348    4.6554   -7.9614 H         1 UNK         0.0814 
    109 H109       24.9536    4.4600   -6.2301 H         1 UNK         0.0814 
    110 H110       25.3109    0.9607   -8.0976 H         1 UNK         0.2983 
    111 H111       25.4029    1.1827  -10.9723 H         1 UNK         0.0947 
    112 H112       24.6119   -1.1761  -10.9020 H         1 UNK         0.0806 
    113 H113       23.6732   -0.1774   -9.8051 H         1 UNK         0.0806 
    114 H114       24.9160   -1.2579   -9.1741 H         1 UNK         0.0806 
    115 H115       27.4049   -0.4795   -8.5220 H         1 UNK         0.3000 
    116 H116       29.3044   -1.5740  -10.4022 H         1 UNK         0.0850 
    117 H117       30.5494   -2.1810   -8.3458 H         1 UNK         0.0810 
    118 H118       28.8456   -2.5504   -8.1411 H         1 UNK         0.0810 
    119 H119       29.5381   -1.1200   -7.3791 H         1 UNK         0.0810 
    120 H120       28.8282    1.6241   -9.5038 H         1 UNK         0.3040 
    121 H121       29.9277    3.5391   -9.5791 H         1 UNK         0.0766 
    122 H122       31.6215    3.8484  -11.3638 H         1 UNK         0.0812 
    123 H123       30.2967    2.8595  -11.9568 H         1 UNK         0.0812 
    124 H124       31.8305    2.1099  -11.5150 H         1 UNK         0.0812 
    125 H125       30.4035    2.2597   -7.3123 H         1 UNK         0.3205 
    126 H126       31.6565    1.9749   -5.5128 H         1 UNK         0.0754 
    127 H127       33.3145    3.7173   -4.9451 H         1 UNK         0.0769 
    128 H128       31.9298    4.4543   -5.7324 H         1 UNK         0.0769 
    129 H129       33.4292    4.2123   -6.6280 H         1 UNK         0.0769 
    130 H130       32.2374    0.2418   -7.7105 H         1 UNK         0.2981 
    131 H131       33.4429   -1.4662   -8.2072 H         1 UNK         0.0541 
    132 H132       34.1373    1.5226   -9.1852 H         1 UNK         0.3459 
    133 H133       35.5178    1.1599  -10.1918 H         1 UNK         0.3459 
    134 H134       34.4280   -1.1422   -5.5821 H         1 UNK         0.0612 
    135 H135       35.8854   -1.1860   -6.5012 H         1 UNK         0.0612 
    136 H136       34.6549   -3.2618   -4.2348 H         1 UNK         0.0624 
    137 H137       34.0985   -4.7837   -4.8779 H         1 UNK         0.0624 
@<TRIPOS>BOND
     1    1    2 1    
     2    1   72 1    
     3    1   73 1    
     4    1   74 1    
     5    2    3 2    
     6    2    4 am   BACKBONE|DICT|INTERRES
     7    4    5 1    
     8    4   75 1    
     9    5    6 1    
    10    5   35 1    
    11    5   76 1    
    12    6    7 1    
    13    6   77 1    
    14    6   78 1    
    15    7    8 1    
    16    8    9 1    
    17    8   79 1    
    18    8   80 1    
    19    9   10 ar   
    20    9   14 ar   
    21   10   11 ar   
    22   10   81 1    
    23   11   12 ar   
    24   11   71 1    
    25   12   13 ar   
    26   12   82 1    
    27   13   14 ar   
    28   13   15 1    
    29   14   83 1    
    30   15   16 1    
    31   15   84 1    
    32   15   85 1    
    33   16   17 1    
    34   17   18 1    
    35   17   86 1    
    36   17   87 1    
    37   18   19 1    
    38   18   37 1    
    39   18   88 1    
    40   19   20 am   BACKBONE|DICT|INTERRES
    41   19   89 1    
    42   20   21 2    
    43   20   22 1    
    44   22   23 1    
    45   22   24 1    
    46   22   90 1    
    47   23   91 1    
    48   23   92 1    
    49   23   93 1    
    50   24   25 am   BACKBONE|DICT|INTERRES
    51   24   94 1    
    52   25   26 2    
    53   25   27 1    
    54   27   28 1    
    55   27   29 1    
    56   27   95 1    
    57   28   96 1    
    58   28   97 1    
    59   28   98 1    
    60   29   30 am   BACKBONE|DICT|INTERRES
    61   29   99 1    
    62   30   31 2    
    63   30   32 1    
    64   32   33 1    
    65   32   34 1    
    66   32  100 1    
    67   33  101 1    
    68   33  102 1    
    69   33  103 1    
    70   34   35 am   BACKBONE|DICT|INTERRES
    71   34  104 1    
    72   35   36 2    
    73   37   38 2    
    74   37   39 am   BACKBONE|DICT|INTERRES
    75   39   40 1    
    76   39  105 1    
    77   40   41 1    
    78   40   42 1    
    79   40  106 1    
    80   41  107 1    
    81   41  108 1    
    82   41  109 1    
    83   42   43 2    
    84   42   44 am   BACKBONE|DICT|INTERRES
    85   44   45 1    
    86   44  110 1    
    87   45   46 1    
    88   45   47 1    
    89   45  111 1    
    90   46  112 1    
    91   46  113 1    
    92   46  114 1    
    93   47   48 2    
    94   47   49 am   BACKBONE|DICT|INTERRES
    95   49   50 1    
    96   49  115 1    
    97   50   51 1    
    98   50   52 1    
    99   50  116 1    
   100   51  117 1    
   101   51  118 1    
   102   51  119 1    
   103   52   53 2    
   104   52   54 am   BACKBONE|DICT|INTERRES
   105   54   55 1    
   106   54  120 1    
   107   55   56 1    
   108   55   57 1    
   109   55  121 1    
   110   56  122 1    
   111   56  123 1    
   112   56  124 1    
   113   57   58 2    
   114   57   59 am   BACKBONE|DICT|INTERRES
   115   59   60 1    
   116   59  125 1    
   117   60   61 1    
   118   60   62 1    
   119   60  126 1    
   120   61  127 1    
   121   61  128 1    
   122   61  129 1    
   123   62   63 2    
   124   62   64 am   BACKBONE|DICT|INTERRES
   125   64   65 1    
   126   64  130 1    
   127   65   66 1    
   128   65   69 1    
   129   65  131 1    
   130   66   67 am   BACKBONE|DICT|INTERRES
   131   66   68 2    
   132   67  132 1    
   133   67  133 1    
   134   69   70 1    
   135   69  134 1    
   136   69  135 1    
   137   70   71 1    
   138   71  136 1    
   139   71  137 1    
@<TRIPOS>SUBSTRUCTURE
     1 UNK         1 GROUP             0       ****    0 ROOT    
