@<TRIPOS>MOLECULE
3R137
137   139    1
SMALL
USER_CHARGES


@<TRIPOS>ATOM
      1 CA         31.1064    1.6836   -1.0812 C.3       0 UNK        -0.2020 
      2 C          30.7709    0.2017   -1.0073 C.2       0 UNK         0.4855 
      3 O          31.6785   -0.6284   -0.9902 O.2       0 UNK        -0.5197 
      4 N          29.4771   -0.1297   -0.9581 N.am      1 UNK        -0.4892 
      5 CA         28.9282   -1.4835   -0.9651 C.3       1 UNK         0.0835 
      6 C6         29.2380   -2.2559    0.3512 C.3       12 UNK        -0.0855 
      7 S7         28.6574   -3.9902    0.3862 S.3       12 UNK        -0.2931 
      8 C8         30.0827   -4.8949   -0.2980 C.3       12 UNK         0.0378 
      9 C9         30.3050   -4.5776   -1.7702 C.ar      12 UNK        -0.0802 
     10 C10        31.4371   -3.8633   -2.1716 C.ar      12 UNK        -0.0944 
     11 C11        31.6437   -3.5665   -3.5205 C.ar      12 UNK        -0.0787 
     12 C12        30.7122   -3.9938   -4.4702 C.ar      12 UNK        -0.0862 
     13 C13        29.5524   -4.6795   -4.0836 C.ar      12 UNK        -0.0733 
     14 C14        29.3716   -4.9848   -2.7299 C.ar      12 UNK        -0.0832 
     15 C15        28.4699   -5.1090   -5.0797 C.3       12 UNK         0.0240 
     16 S16        28.5496   -4.3419   -6.7380 S.3       12 UNK        -0.2522 
     17 C17        28.3554   -2.5683   -6.3565 C.3       12 UNK        -0.0967 
     18 CA         27.3460   -1.8847   -7.3118 C.3       5 UNK         0.0660 
     19 N          25.9644   -2.2387   -6.9981 N.am      5 UNK        -0.4015 
     20 C          24.9889   -2.3831   -7.9037 C.2       4 UNK         0.4946 
     21 O          25.1690   -2.3619   -9.1220 O.2       4 UNK        -0.5353 
     22 CA         23.5573   -2.5703   -7.3647 C.3       4 UNK         0.0277 
     23 CB         23.2133   -4.0657   -7.2690 C.3       4 UNK        -0.1981 
     24 N          23.3225   -1.9371   -6.0627 N.am      4 UNK        -0.4209 
     25 C          23.4249   -0.6227   -5.8160 C.2       3 UNK         0.4942 
     26 O          23.7075    0.2172   -6.6685 O.2       3 UNK        -0.5208 
     27 CA         23.2410   -0.1731   -4.3573 C.3       3 UNK         0.0250 
     28 CB         21.7556    0.0873   -4.0609 C.3       3 UNK        -0.1990 
     29 N          23.7867   -1.1003   -3.3570 N.am      3 UNK        -0.4232 
     30 C          25.0440   -1.5653   -3.3212 C.2       2 UNK         0.4993 
     31 O          25.8893   -1.3453   -4.1932 O.2       2 UNK        -0.5286 
     32 CA         25.3961   -2.4822   -2.1416 C.3       2 UNK         0.0209 
     33 CB         25.0407   -3.9397   -2.4775 C.3       2 UNK        -0.1931 
     34 N          26.8168   -2.4087   -1.7988 N.am      2 UNK        -0.4546 
     35 C          27.4210   -1.3472   -1.2507 C.2       1 UNK         0.5154 
     36 O          26.8370   -0.2975   -0.9605 O.2       1 UNK        -0.5181 
     37 C          27.4935   -0.3550   -7.2717 C.2       5 UNK         0.5014 
     38 O          27.9177    0.2386   -8.2636 O.2       5 UNK        -0.5248 
     39 N          27.1323    0.2529   -6.1311 N.am      6 UNK        -0.4434 
     40 CA         27.3725    1.6605   -5.8030 C.3       6 UNK         0.0363 
     41 CB         26.9049    1.9398   -4.3666 C.3       6 UNK        -0.1936 
     42 C          26.7616    2.6747   -6.7847 C.2       6 UNK         0.5081 
     43 O          27.3684    3.7233   -7.0030 O.2       6 UNK        -0.5248 
     44 N          25.6190    2.3446   -7.4060 N.am      7 UNK        -0.4718 
     45 CA         24.9788    3.1604   -8.4476 C.3       7 UNK         0.0273 
     46 CB         23.6035    2.5681   -8.7927 C.3       7 UNK        -0.1935 
     47 C          25.8227    3.3297   -9.7269 C.2       7 UNK         0.5018 
     48 O          25.6168    4.3039  -10.4517 O.2       7 UNK        -0.5186 
     49 N          26.7583    2.4030   -9.9720 N.am      8 UNK        -0.4240 
     50 CA         27.7322    2.4479  -11.0642 C.3       8 UNK         0.0235 
     51 CB         27.6200    1.1379  -11.8655 C.3       8 UNK        -0.2000 
     52 C          29.1638    2.6492  -10.5312 C.2       8 UNK         0.4941 
     53 O          30.1173    2.4347  -11.2830 O.2       8 UNK        -0.5273 
     54 N          29.3039    3.0135   -9.2456 N.am      9 UNK        -0.4262 
     55 CA         30.5235    3.0395   -8.4290 C.3       9 UNK         0.0264 
     56 CB         31.5751    4.0303   -8.9690 C.3       9 UNK        -0.1955 
     57 C          31.1025    1.6318   -8.2064 C.2       9 UNK         0.5031 
     58 O          31.1138    1.1648   -7.0675 O.2       9 UNK        -0.5390 
     59 N          31.5416    0.9890   -9.2985 N.am      10 UNK        -0.4204 
     60 CA         32.0215   -0.3909   -9.4674 C.3       10 UNK         0.0237 
     61 CB         30.8809   -1.3918   -9.2090 C.3       10 UNK        -0.1985 
     62 C          33.2784   -0.7853   -8.6685 C.2       10 UNK         0.4970 
     63 O          34.1624   -1.4324   -9.2318 O.2       10 UNK        -0.4914 
     64 N          33.3259   -0.4289   -7.3830 N.am      11 UNK        -0.4285 
     65 CA         34.3957   -0.7521   -6.4319 C.3       11 UNK         0.1007 
     66 C          35.7541   -0.0947   -6.7986 C.2       11 UNK         0.5703 
     67 N          36.8636   -0.7619   -6.5102 N.am      11 UNK        -0.7361 
     68 O          35.8131    1.0270   -7.3002 O.2       11 UNK        -0.4986 
     69 C69        33.9908   -0.3975   -4.9762 C.3       12 UNK        -0.0947 
     70 S70        32.3795   -1.0940   -4.4800 S.3       12 UNK        -0.2240 
     71 C71        32.8613   -2.7675   -3.9584 C.3       12 UNK         0.0194 
     72 H72        30.2116    2.3059   -1.0862 H         1 UNK         0.0906 
     73 H73        31.7175    1.9734   -0.2268 H         1 UNK         0.0906 
     74 H74        31.6700    1.8927   -1.9904 H         1 UNK         0.0906 
     75 H75        28.7550    0.5825   -0.9668 H         1 UNK         0.3140 
     76 H76        29.3769   -2.0031   -1.8127 H         1 UNK         0.1085 
     77 H77        28.7925   -1.7348    1.2005 H         1 UNK         0.0836 
     78 H78        30.3114   -2.2605    0.5434 H         1 UNK         0.0836 
     79 H79        29.9065   -5.9659   -0.1877 H         1 UNK         0.0731 
     80 H80        30.9725   -4.6699    0.2924 H         1 UNK         0.0731 
     81 H81        32.1506   -3.5234   -1.4330 H         1 UNK         0.1312 
     82 H82        30.8943   -3.7595   -5.5088 H         1 UNK         0.1406 
     83 H83        28.4921   -5.5311   -2.4152 H         1 UNK         0.1631 
     84 H84        28.5263   -6.1912   -5.2032 H         1 UNK         0.0717 
     85 H85        27.4861   -4.8978   -4.6597 H         1 UNK         0.0717 
     86 H86        28.0541   -2.4427   -5.3149 H         1 UNK         0.0934 
     87 H87        29.3419   -2.1091   -6.4314 H         1 UNK         0.0934 
     88 H88        27.5835   -2.1978   -8.3313 H         1 UNK         0.0739 
     89 H89        25.7173   -2.2149   -6.0155 H         1 UNK         0.3093 
     90 H90        22.8779   -2.1055   -8.0824 H         1 UNK         0.0818 
     91 H91        22.1736   -4.2174   -6.9784 H         1 UNK         0.0819 
     92 H92        23.3533   -4.5600   -8.2316 H         1 UNK         0.0819 
     93 H93        23.8453   -4.5806   -6.5442 H         1 UNK         0.0819 
     94 H94        23.0877   -2.5479   -5.2941 H         1 UNK         0.3041 
     95 H95        23.7738    0.7716   -4.2435 H         1 UNK         0.0784 
     96 H96        21.3311    0.7885   -4.7813 H         1 UNK         0.0793 
     97 H97        21.1654   -0.8286   -4.1111 H         1 UNK         0.0793 
     98 H98        21.6179    0.5227   -3.0710 H         1 UNK         0.0793 
     99 H99        23.1595   -1.3589   -2.6085 H         1 UNK         0.3024 
    100 H100       24.8226   -2.1666   -1.2670 H         1 UNK         0.1171 
    101 H101       25.2861   -4.6088   -1.6522 H         1 UNK         0.0786 
    102 H102       23.9730   -4.0491   -2.6724 H         1 UNK         0.0786 
    103 H103       25.5697   -4.2913   -3.3635 H         1 UNK         0.0786 
    104 H104       27.3734   -3.2264   -1.9976 H         1 UNK         0.2977 
    105 H105       26.7378   -0.3176   -5.3835 H         1 UNK         0.3127 
    106 H106       28.4550    1.8036   -5.8351 H         1 UNK         0.0770 
    107 H107       25.8287    1.8102   -4.2623 H         1 UNK         0.0814 
    108 H108       27.1402    2.9633   -4.0718 H         1 UNK         0.0814 
    109 H109       27.3925    1.2760   -3.6519 H         1 UNK         0.0814 
    110 H110       25.1525    1.4749   -7.1601 H         1 UNK         0.2983 
    111 H111       24.8245    4.1593   -8.0341 H         1 UNK         0.0947 
    112 H112       23.1015    3.1593   -9.5599 H         1 UNK         0.0806 
    113 H113       22.9497    2.5510   -7.9206 H         1 UNK         0.0806 
    114 H114       23.6883    1.5475   -9.1685 H         1 UNK         0.0806 
    115 H115       26.8849    1.6450   -9.3060 H         1 UNK         0.3000 
    116 H116       27.5228    3.2826  -11.7361 H         1 UNK         0.0850 
    117 H117       28.2895    1.1424  -12.7267 H         1 UNK         0.0810 
    118 H118       26.6087    0.9912  -12.2450 H         1 UNK         0.0810 
    119 H119       27.8777    0.2717  -11.2541 H         1 UNK         0.0810 
    120 H120       28.4542    3.1755   -8.7162 H         1 UNK         0.3040 
    121 H121       30.2101    3.4061   -7.4499 H         1 UNK         0.0766 
    122 H122       31.1635    5.0367   -9.0450 H         1 UNK         0.0812 
    123 H123       31.9508    3.7501   -9.9530 H         1 UNK         0.0812 
    124 H124       32.4348    4.0823   -8.2997 H         1 UNK         0.0812 
    125 H125       31.4050    1.4968  -10.1694 H         1 UNK         0.3205 
    126 H126       32.2906   -0.4726  -10.5217 H         1 UNK         0.0754 
    127 H127       31.2007   -2.4163   -9.4038 H         1 UNK         0.0769 
    128 H128       30.0214   -1.1891   -9.8485 H         1 UNK         0.0769 
    129 H129       30.5430   -1.3456   -8.1754 H         1 UNK         0.0769 
    130 H130       32.5450    0.1149   -7.0189 H         1 UNK         0.2981 
    131 H131       34.5333   -1.8337   -6.4839 H         1 UNK         0.0541 
    132 H132       36.8289   -1.6762   -6.0871 H         1 UNK         0.3459 
    133 H133       37.7553   -0.3444   -6.7265 H         1 UNK         0.3459 
    134 H134       33.9256    0.6857   -4.8572 H         1 UNK         0.0612 
    135 H135       34.7515   -0.7354   -4.2702 H         1 UNK         0.0612 
    136 H136       33.3555   -3.2802   -4.7846 H         1 UNK         0.0624 
    137 H137       33.5894   -2.6960   -3.1490 H         1 UNK         0.0624 
@<TRIPOS>BOND
     1    1    2 1    
     2    1   72 1    
     3    1   73 1    
     4    1   74 1    
     5    2    3 2    
     6    2    4 am   BACKBONE|DICT|INTERRES
     7    4    5 1    
     8    4   75 1    
     9    5    6 1    
    10    5   35 1    
    11    5   76 1    
    12    6    7 1    
    13    6   77 1    
    14    6   78 1    
    15    7    8 1    
    16    8    9 1    
    17    8   79 1    
    18    8   80 1    
    19    9   10 ar   
    20    9   14 ar   
    21   10   11 ar   
    22   10   81 1    
    23   11   12 ar   
    24   11   71 1    
    25   12   13 ar   
    26   12   82 1    
    27   13   14 ar   
    28   13   15 1    
    29   14   83 1    
    30   15   16 1    
    31   15   84 1    
    32   15   85 1    
    33   16   17 1    
    34   17   18 1    
    35   17   86 1    
    36   17   87 1    
    37   18   19 1    
    38   18   37 1    
    39   18   88 1    
    40   19   20 am   BACKBONE|DICT|INTERRES
    41   19   89 1    
    42   20   21 2    
    43   20   22 1    
    44   22   23 1    
    45   22   24 1    
    46   22   90 1    
    47   23   91 1    
    48   23   92 1    
    49   23   93 1    
    50   24   25 am   BACKBONE|DICT|INTERRES
    51   24   94 1    
    52   25   26 2    
    53   25   27 1    
    54   27   28 1    
    55   27   29 1    
    56   27   95 1    
    57   28   96 1    
    58   28   97 1    
    59   28   98 1    
    60   29   30 am   BACKBONE|DICT|INTERRES
    61   29   99 1    
    62   30   31 2    
    63   30   32 1    
    64   32   33 1    
    65   32   34 1    
    66   32  100 1    
    67   33  101 1    
    68   33  102 1    
    69   33  103 1    
    70   34   35 am   BACKBONE|DICT|INTERRES
    71   34  104 1    
    72   35   36 2    
    73   37   38 2    
    74   37   39 am   BACKBONE|DICT|INTERRES
    75   39   40 1    
    76   39  105 1    
    77   40   41 1    
    78   40   42 1    
    79   40  106 1    
    80   41  107 1    
    81   41  108 1    
    82   41  109 1    
    83   42   43 2    
    84   42   44 am   BACKBONE|DICT|INTERRES
    85   44   45 1    
    86   44  110 1    
    87   45   46 1    
    88   45   47 1    
    89   45  111 1    
    90   46  112 1    
    91   46  113 1    
    92   46  114 1    
    93   47   48 2    
    94   47   49 am   BACKBONE|DICT|INTERRES
    95   49   50 1    
    96   49  115 1    
    97   50   51 1    
    98   50   52 1    
    99   50  116 1    
   100   51  117 1    
   101   51  118 1    
   102   51  119 1    
   103   52   53 2    
   104   52   54 am   BACKBONE|DICT|INTERRES
   105   54   55 1    
   106   54  120 1    
   107   55   56 1    
   108   55   57 1    
   109   55  121 1    
   110   56  122 1    
   111   56  123 1    
   112   56  124 1    
   113   57   58 2    
   114   57   59 am   BACKBONE|DICT|INTERRES
   115   59   60 1    
   116   59  125 1    
   117   60   61 1    
   118   60   62 1    
   119   60  126 1    
   120   61  127 1    
   121   61  128 1    
   122   61  129 1    
   123   62   63 2    
   124   62   64 am   BACKBONE|DICT|INTERRES
   125   64   65 1    
   126   64  130 1    
   127   65   66 1    
   128   65   69 1    
   129   65  131 1    
   130   66   67 am   BACKBONE|DICT|INTERRES
   131   66   68 2    
   132   67  132 1    
   133   67  133 1    
   134   69   70 1    
   135   69  134 1    
   136   69  135 1    
   137   70   71 1    
   138   71  136 1    
   139   71  137 1    
@<TRIPOS>SUBSTRUCTURE
     1 UNK         1 GROUP             0       ****    0 ROOT    
