@<TRIPOS>MOLECULE
3R137
137   139    1
SMALL
USER_CHARGES


@<TRIPOS>ATOM
      1 CA         25.2993   -2.5239    4.6745 C.3       0 UNK        -0.2020 
      2 C          25.8180   -2.1182    3.3028 C.2       0 UNK         0.4855 
      3 O          25.4487   -1.0570    2.7983 O.2       0 UNK        -0.5197 
      4 N          26.6771   -2.9492    2.6992 N.am      1 UNK        -0.4892 
      5 CA         27.2180   -2.7525    1.3501 C.3       1 UNK         0.0835 
      6 C6         28.5237   -3.5649    1.1529 C.3       12 UNK        -0.0855 
      7 S7         29.5675   -2.8870   -0.1825 S.3       12 UNK        -0.2931 
      8 C8         29.4637   -4.2283   -1.4192 C.3       12 UNK         0.0378 
      9 C9         29.9303   -3.8565   -2.8288 C.ar      12 UNK        -0.0802 
     10 C10        30.7918   -2.7843   -3.0846 C.ar      12 UNK        -0.0944 
     11 C11        31.2140   -2.4814   -4.3832 C.ar      12 UNK        -0.0787 
     12 C12        30.7686   -3.2795   -5.4483 C.ar      12 UNK        -0.0862 
     13 C13        29.9159   -4.3655   -5.2078 C.ar      12 UNK        -0.0733 
     14 C14        29.5040   -4.6420   -3.9010 C.ar      12 UNK        -0.0832 
     15 C15        29.4647   -5.2889   -6.3348 C.3       12 UNK         0.0240 
     16 S16        28.3848   -4.5047   -7.5758 S.3       12 UNK        -0.2522 
     17 C17        27.0988   -3.6379   -6.6005 C.3       12 UNK        -0.0967 
     18 CA         26.7166   -2.2951   -7.2718 C.3       5 UNK         0.0660 
     19 N          25.4886   -1.7011   -6.7388 N.am      5 UNK        -0.4015 
     20 C          24.8049   -0.7245   -7.3575 C.2       4 UNK         0.4946 
     21 O          25.1046   -0.2704   -8.4618 O.2       4 UNK        -0.5353 
     22 CA         23.6121   -0.1154   -6.6025 C.3       4 UNK         0.0277 
     23 CB         22.3715   -1.0145   -6.7255 C.3       4 UNK        -0.1981 
     24 N          23.9065    0.1340   -5.1908 N.am      4 UNK        -0.4209 
     25 C          24.8343    0.9959   -4.7493 C.2       3 UNK         0.4942 
     26 O          25.4970    1.7283   -5.4840 O.2       3 UNK        -0.5208 
     27 CA         25.1026    1.0068   -3.2336 C.3       3 UNK         0.0250 
     28 CB         24.1712    2.0071   -2.5308 C.3       3 UNK        -0.1990 
     29 N          24.9888   -0.3084   -2.5883 N.am      3 UNK        -0.4232 
     30 C          25.6701   -1.4065   -2.9451 C.2       2 UNK         0.4993 
     31 O          26.4619   -1.4468   -3.8886 O.2       2 UNK        -0.5286 
     32 CA         25.4603   -2.6479   -2.0763 C.3       2 UNK         0.0209 
     33 CB         25.7557   -3.9570   -2.8359 C.3       2 UNK        -0.1931 
     34 N          26.3448   -2.5145   -0.9250 N.am      2 UNK        -0.4546 
     35 C          26.1573   -3.0771    0.2726 C.2       1 UNK         0.5154 
     36 O          25.2144   -3.8306    0.5324 O.2       1 UNK        -0.5181 
     37 C          27.8732   -1.2825   -7.2365 C.2       5 UNK         0.5014 
     38 O          28.5786   -1.1604   -8.2354 O.2       5 UNK        -0.5248 
     39 N          28.0202   -0.5461   -6.1249 N.am      6 UNK        -0.4434 
     40 CA         29.0436    0.4898   -5.9611 C.3       6 UNK         0.0363 
     41 CB         28.9703    1.0919   -4.5511 C.3       6 UNK        -0.1936 
     42 C          28.9846    1.5825   -7.0423 C.2       6 UNK         0.5081 
     43 O          30.0308    1.9830   -7.5569 O.2       6 UNK        -0.5248 
     44 N          27.7614    1.9981   -7.3989 N.am      7 UNK        -0.4718 
     45 CA         27.4790    2.8914   -8.5195 C.3       7 UNK         0.0273 
     46 CB         26.0288    3.3927   -8.4249 C.3       7 UNK        -0.1935 
     47 C          27.7464    2.2329   -9.8840 C.2       7 UNK         0.5018 
     48 O          28.4592    2.8203  -10.6975 O.2       7 UNK        -0.5186 
     49 N          27.1783    1.0387  -10.1164 N.am      8 UNK        -0.4240 
     50 CA         27.2590    0.3146  -11.3918 C.3       8 UNK         0.0235 
     51 CB         26.3021   -0.8878  -11.3745 C.3       8 UNK        -0.2000 
     52 C          28.6792   -0.1376  -11.7691 C.2       8 UNK         0.4941 
     53 O          29.0672    0.0025  -12.9297 O.2       8 UNK        -0.5273 
     54 N          29.4315   -0.6587  -10.7914 N.am      9 UNK        -0.4262 
     55 CA         30.8284   -1.0717  -10.9468 C.3       9 UNK         0.0264 
     56 CB         31.1864   -2.0754   -9.8370 C.3       9 UNK        -0.1955 
     57 C          31.8072    0.1150  -10.9273 C.2       9 UNK         0.5031 
     58 O          32.9601   -0.0656  -11.3220 O.2       9 UNK        -0.5390 
     59 N          31.3393    1.2866  -10.4669 N.am      10 UNK        -0.4204 
     60 CA         32.0787    2.5364  -10.2739 C.3       10 UNK         0.0237 
     61 CB         32.5063    3.1390  -11.6292 C.3       10 UNK        -0.1985 
     62 C          33.2470    2.3523   -9.2898 C.2       10 UNK         0.4970 
     63 O          34.4028    2.5934   -9.6456 O.2       10 UNK        -0.4914 
     64 N          32.9166    1.9040   -8.0714 N.am      11 UNK        -0.4285 
     65 CA         33.8817    1.6600   -6.9865 C.3       11 UNK         0.1007 
     66 C          34.5950    2.9383   -6.4519 C.2       11 UNK         0.5703 
     67 N          34.0592    4.1362   -6.6586 N.am      11 UNK        -0.7361 
     68 O          35.6556    2.8379   -5.8396 O.2       11 UNK        -0.4986 
     69 C69        33.2445    0.8830   -5.8077 C.3       12 UNK        -0.0947 
     70 S70        32.6221   -0.7798   -6.2278 S.3       12 UNK        -0.2240 
     71 C71        32.1533   -1.2837   -4.5363 C.3       12 UNK         0.0194 
     72 H72        25.5559   -1.7645    5.4126 H         1 UNK         0.0906 
     73 H73        24.2144   -2.6230    4.6505 H         1 UNK         0.0906 
     74 H74        25.7190   -3.4736    5.0056 H         1 UNK         0.0906 
     75 H75        26.9137   -3.8250    3.1441 H         1 UNK         0.3140 
     76 H76        27.4618   -1.6908    1.2592 H         1 UNK         0.1085 
     77 H77        29.1260   -3.5226    2.0621 H         1 UNK         0.0836 
     78 H78        28.3152   -4.6241    0.9884 H         1 UNK         0.0836 
     79 H79        30.0557   -5.0740   -1.0669 H         1 UNK         0.0731 
     80 H80        28.4299   -4.5728   -1.4674 H         1 UNK         0.0731 
     81 H81        31.1500   -2.1735   -2.2682 H         1 UNK         0.1312 
     82 H82        31.0826   -3.0715   -6.4614 H         1 UNK         0.1406 
     83 H83        28.8536   -5.4860   -3.7136 H         1 UNK         0.1631 
     84 H84        28.9428   -6.1596   -5.9347 H         1 UNK         0.0717 
     85 H85        30.3477   -5.6783   -6.8433 H         1 UNK         0.0717 
     86 H86        26.2274   -4.2918   -6.5434 H         1 UNK         0.0934 
     87 H87        27.4251   -3.4756   -5.5728 H         1 UNK         0.0934 
     88 H88        26.5173   -2.5110   -8.3239 H         1 UNK         0.0739 
     89 H89        25.2390   -1.9519   -5.7929 H         1 UNK         0.3093 
     90 H90        23.3842    0.8457   -7.0689 H         1 UNK         0.0818 
     91 H91        21.4973   -0.5482   -6.2705 H         1 UNK         0.0819 
     92 H92        22.1283   -1.1997   -7.7728 H         1 UNK         0.0819 
     93 H93        22.5212   -1.9844   -6.2496 H         1 UNK         0.0819 
     94 H94        23.4021   -0.4156   -4.5106 H         1 UNK         0.3041 
     95 H95        26.1297    1.3450   -3.0889 H         1 UNK         0.0784 
     96 H96        24.2537    2.9983   -2.9795 H         1 UNK         0.0793 
     97 H97        23.1255    1.7046   -2.5993 H         1 UNK         0.0793 
     98 H98        24.4231    2.1110   -1.4752 H         1 UNK         0.0793 
     99 H99        24.3813   -0.3593   -1.7826 H         1 UNK         0.3024 
    100 H100       24.4199   -2.6659   -1.7431 H         1 UNK         0.1171 
    101 H101       25.1089   -4.0559   -3.7082 H         1 UNK         0.0786 
    102 H102       25.5864   -4.8304   -2.2061 H         1 UNK         0.0786 
    103 H103       26.7856   -3.9942   -3.1887 H         1 UNK         0.0786 
    104 H104       27.1574   -1.9282   -1.0687 H         1 UNK         0.2977 
    105 H105       27.4214   -0.7436   -5.3253 H         1 UNK         0.3127 
    106 H106       30.0011   -0.0126   -6.0648 H         1 UNK         0.0770 
    107 H107       28.0504    1.6564   -4.4036 H         1 UNK         0.0814 
    108 H108       29.8024    1.7759   -4.3801 H         1 UNK         0.0814 
    109 H109       29.0208    0.3179   -3.7847 H         1 UNK         0.0814 
    110 H110       26.9621    1.6532   -6.8750 H         1 UNK         0.2983 
    111 H111       28.1418    3.7555   -8.4343 H         1 UNK         0.0947 
    112 H112       25.7929    4.0673   -9.2490 H         1 UNK         0.0806 
    113 H113       25.8609    3.9410   -7.4977 H         1 UNK         0.0806 
    114 H114       25.3122    2.5709   -8.4575 H         1 UNK         0.0806 
    115 H115       26.5932    0.6214   -9.3968 H         1 UNK         0.3000 
    116 H116       26.9203    0.9989  -12.1727 H         1 UNK         0.0850 
    117 H117       26.3332   -1.4277  -12.3219 H         1 UNK         0.0810 
    118 H118       25.2709   -0.5717  -11.2161 H         1 UNK         0.0810 
    119 H119       26.5605   -1.5953  -10.5861 H         1 UNK         0.0810 
    120 H120       29.0312   -0.7702   -9.8566 H         1 UNK         0.3040 
    121 H121       30.9377   -1.5753  -11.9096 H         1 UNK         0.0766 
    122 H122       32.1960   -2.4651   -9.9723 H         1 UNK         0.0812 
    123 H123       30.5054   -2.9267   -9.8329 H         1 UNK         0.0812 
    124 H124       31.1473   -1.6130   -8.8499 H         1 UNK         0.0812 
    125 H125       30.3741    1.3108  -10.1653 H         1 UNK         0.3205 
    126 H126       31.3835    3.2362   -9.8072 H         1 UNK         0.0754 
    127 H127       32.9794    4.1118  -11.4904 H         1 UNK         0.0769 
    128 H128       31.6465    3.2866  -12.2830 H         1 UNK         0.0769 
    129 H129       33.2200    2.5023  -12.1529 H         1 UNK         0.0769 
    130 H130       31.9345    1.7627   -7.8493 H         1 UNK         0.2981 
    131 H131       34.6702    1.0304   -7.4032 H         1 UNK         0.0541 
    132 H132       33.1864    4.2272   -7.1527 H         1 UNK         0.3459 
    133 H133       34.5320    4.9553   -6.3108 H         1 UNK         0.3459 
    134 H134       32.4194    1.4614   -5.3870 H         1 UNK         0.0612 
    135 H135       33.9718    0.7578   -5.0026 H         1 UNK         0.0612 
    136 H136       33.0693   -1.4868   -3.9798 H         1 UNK         0.0624 
    137 H137       31.6794   -0.4311   -4.0473 H         1 UNK         0.0624 
@<TRIPOS>BOND
     1    1    2 1    
     2    1   72 1    
     3    1   73 1    
     4    1   74 1    
     5    2    3 2    
     6    2    4 am   BACKBONE|DICT|INTERRES
     7    4    5 1    
     8    4   75 1    
     9    5    6 1    
    10    5   35 1    
    11    5   76 1    
    12    6    7 1    
    13    6   77 1    
    14    6   78 1    
    15    7    8 1    
    16    8    9 1    
    17    8   79 1    
    18    8   80 1    
    19    9   10 ar   
    20    9   14 ar   
    21   10   11 ar   
    22   10   81 1    
    23   11   12 ar   
    24   11   71 1    
    25   12   13 ar   
    26   12   82 1    
    27   13   14 ar   
    28   13   15 1    
    29   14   83 1    
    30   15   16 1    
    31   15   84 1    
    32   15   85 1    
    33   16   17 1    
    34   17   18 1    
    35   17   86 1    
    36   17   87 1    
    37   18   19 1    
    38   18   37 1    
    39   18   88 1    
    40   19   20 am   BACKBONE|DICT|INTERRES
    41   19   89 1    
    42   20   21 2    
    43   20   22 1    
    44   22   23 1    
    45   22   24 1    
    46   22   90 1    
    47   23   91 1    
    48   23   92 1    
    49   23   93 1    
    50   24   25 am   BACKBONE|DICT|INTERRES
    51   24   94 1    
    52   25   26 2    
    53   25   27 1    
    54   27   28 1    
    55   27   29 1    
    56   27   95 1    
    57   28   96 1    
    58   28   97 1    
    59   28   98 1    
    60   29   30 am   BACKBONE|DICT|INTERRES
    61   29   99 1    
    62   30   31 2    
    63   30   32 1    
    64   32   33 1    
    65   32   34 1    
    66   32  100 1    
    67   33  101 1    
    68   33  102 1    
    69   33  103 1    
    70   34   35 am   BACKBONE|DICT|INTERRES
    71   34  104 1    
    72   35   36 2    
    73   37   38 2    
    74   37   39 am   BACKBONE|DICT|INTERRES
    75   39   40 1    
    76   39  105 1    
    77   40   41 1    
    78   40   42 1    
    79   40  106 1    
    80   41  107 1    
    81   41  108 1    
    82   41  109 1    
    83   42   43 2    
    84   42   44 am   BACKBONE|DICT|INTERRES
    85   44   45 1    
    86   44  110 1    
    87   45   46 1    
    88   45   47 1    
    89   45  111 1    
    90   46  112 1    
    91   46  113 1    
    92   46  114 1    
    93   47   48 2    
    94   47   49 am   BACKBONE|DICT|INTERRES
    95   49   50 1    
    96   49  115 1    
    97   50   51 1    
    98   50   52 1    
    99   50  116 1    
   100   51  117 1    
   101   51  118 1    
   102   51  119 1    
   103   52   53 2    
   104   52   54 am   BACKBONE|DICT|INTERRES
   105   54   55 1    
   106   54  120 1    
   107   55   56 1    
   108   55   57 1    
   109   55  121 1    
   110   56  122 1    
   111   56  123 1    
   112   56  124 1    
   113   57   58 2    
   114   57   59 am   BACKBONE|DICT|INTERRES
   115   59   60 1    
   116   59  125 1    
   117   60   61 1    
   118   60   62 1    
   119   60  126 1    
   120   61  127 1    
   121   61  128 1    
   122   61  129 1    
   123   62   63 2    
   124   62   64 am   BACKBONE|DICT|INTERRES
   125   64   65 1    
   126   64  130 1    
   127   65   66 1    
   128   65   69 1    
   129   65  131 1    
   130   66   67 am   BACKBONE|DICT|INTERRES
   131   66   68 2    
   132   67  132 1    
   133   67  133 1    
   134   69   70 1    
   135   69  134 1    
   136   69  135 1    
   137   70   71 1    
   138   71  136 1    
   139   71  137 1    
@<TRIPOS>SUBSTRUCTURE
     1 UNK         1 GROUP             0       ****    0 ROOT    
