@<TRIPOS>MOLECULE
3R137
137   139    1
SMALL
USER_CHARGES


@<TRIPOS>ATOM
      1 CA         29.7480   -0.0635    0.9877 C.3       0 UNK        -0.2020 
      2 C          29.1251   -0.9086   -0.1128 C.2       0 UNK         0.4855 
      3 O          28.6796   -0.3644   -1.1226 O.2       0 UNK        -0.5197 
      4 N          29.0981   -2.2342    0.0714 N.am      1 UNK        -0.4892 
      5 CA         28.5297   -3.1999   -0.8735 C.3       1 UNK         0.0835 
      6 C6         29.0477   -4.6439   -0.6331 C.3       12 UNK        -0.0855 
      7 S7         30.8698   -4.7482   -0.5170 S.3       12 UNK        -0.2931 
      8 C8         31.3545   -5.2253   -2.2102 C.3       12 UNK         0.0378 
      9 C9         30.9967   -4.1782   -3.2602 C.ar      12 UNK        -0.0802 
     10 C10        31.3317   -2.8312   -3.0763 C.ar      12 UNK        -0.0944 
     11 C11        30.9830   -1.8704   -4.0303 C.ar      12 UNK        -0.0787 
     12 C12        30.3111   -2.2733   -5.1887 C.ar      12 UNK        -0.0862 
     13 C13        30.0065   -3.6200   -5.4054 C.ar      12 UNK        -0.0733 
     14 C14        30.3446   -4.5661   -4.4344 C.ar      12 UNK        -0.0832 
     15 C15        29.3405   -4.0568   -6.7025 C.3       12 UNK         0.0240 
     16 S16        27.6443   -4.6719   -6.4610 S.3       12 UNK        -0.2522 
     17 C17        26.7969   -3.2369   -5.7255 C.3       12 UNK        -0.0967 
     18 CA         26.3428   -2.1890   -6.7784 C.3       5 UNK         0.0660 
     19 N          24.9836   -1.7088   -6.5217 N.am      5 UNK        -0.4015 
     20 C          24.2538   -0.9713   -7.3691 C.2       4 UNK         0.4946 
     21 O          24.6388   -0.6319   -8.4877 O.2       4 UNK        -0.5353 
     22 CA         22.8779   -0.5042   -6.8652 C.3       4 UNK         0.0277 
     23 CB         21.8132   -1.5826   -7.1214 C.3       4 UNK        -0.1981 
     24 N          22.8926   -0.1523   -5.4417 N.am      4 UNK        -0.4209 
     25 C          23.5153    0.9264   -4.9450 C.2       3 UNK         0.4942 
     26 O          24.0898    1.7644   -5.6387 O.2       3 UNK        -0.5208 
     27 CA         23.5352    1.0762   -3.4136 C.3       3 UNK         0.0250 
     28 CB         22.2366    1.7330   -2.9181 C.3       3 UNK        -0.1990 
     29 N          23.7669   -0.1761   -2.6801 N.am      3 UNK        -0.4232 
     30 C          24.8388   -0.9654   -2.8337 C.2       2 UNK         0.4993 
     31 O          25.7041   -0.7896   -3.6953 O.2       2 UNK        -0.5286 
     32 CA         24.9645   -2.1680   -1.8945 C.3       2 UNK         0.0209 
     33 CB         24.1404   -3.3659   -2.3995 C.3       2 UNK        -0.1931 
     34 N          26.3806   -2.5149   -1.8282 N.am      2 UNK        -0.4546 
     35 C          26.9913   -3.1264   -0.8106 C.2       1 UNK         0.5154 
     36 O          26.3974   -3.5816    0.1699 O.2       1 UNK        -0.5181 
     37 C          27.3294   -1.0099   -6.8726 C.2       5 UNK         0.5014 
     38 O          28.1052   -0.9386   -7.8238 O.2       5 UNK        -0.5248 
     39 N          27.2447   -0.0868   -5.9055 N.am      6 UNK        -0.4434 
     40 CA         28.0353    1.1430   -5.8288 C.3       6 UNK         0.0363 
     41 CB         27.8243    1.7781   -4.4451 C.3       6 UNK        -0.1936 
     42 C          27.7284    2.1591   -6.9458 C.2       6 UNK         0.5081 
     43 O          28.5500    3.0418   -7.1917 O.2       6 UNK        -0.5248 
     44 N          26.5610    2.0398   -7.5924 N.am      7 UNK        -0.4718 
     45 CA         26.2101    2.7939   -8.7954 C.3       7 UNK         0.0273 
     46 CB         24.6821    2.9346   -8.8906 C.3       7 UNK        -0.1935 
     47 C          26.7796    2.1310  -10.0608 C.2       7 UNK         0.5018 
     48 O          27.2406    2.8415  -10.9550 O.2       7 UNK        -0.5186 
     49 N          26.7203    0.7927  -10.1248 N.am      8 UNK        -0.4240 
     50 CA         27.1879   -0.0112  -11.2547 C.3       8 UNK         0.0235 
     51 CB         26.5918   -1.4259  -11.1579 C.3       8 UNK        -0.2000 
     52 C          28.7205   -0.0724  -11.3646 C.2       8 UNK         0.4941 
     53 O          29.2556    0.1600  -12.4501 O.2       8 UNK        -0.5273 
     54 N          29.3943   -0.4059  -10.2577 N.am      9 UNK        -0.4262 
     55 CA         30.8500   -0.5262  -10.1706 C.3       9 UNK         0.0264 
     56 CB         31.1936   -1.6723   -9.2037 C.3       9 UNK        -0.1955 
     57 C          31.4743    0.7826   -9.6694 C.2       9 UNK         0.5031 
     58 O          30.8046    1.5663   -8.9956 O.2       9 UNK        -0.5390 
     59 N          32.7657    0.9755   -9.9706 N.am      10 UNK        -0.4204 
     60 CA         33.5732    2.0715   -9.4256 C.3       10 UNK         0.0237 
     61 CB         34.8523    2.2479  -10.2621 C.3       10 UNK        -0.1985 
     62 C          33.9078    1.8448   -7.9407 C.2       10 UNK         0.4970 
     63 O          33.7333    2.7637   -7.1407 O.2       10 UNK        -0.4914 
     64 N          34.3678    0.6222   -7.6272 N.am      11 UNK        -0.4285 
     65 CA         34.6726    0.0648   -6.2939 C.3       11 UNK         0.1007 
     66 C          35.5353    0.9327   -5.3246 C.2       11 UNK         0.5703 
     67 N          36.3752    1.8299   -5.8264 N.am      11 UNK        -0.7361 
     68 O          35.4861    0.7629   -4.1083 O.2       11 UNK        -0.4986 
     69 C69        33.4483   -0.6382   -5.6382 C.3       12 UNK        -0.0947 
     70 S70        32.0313    0.4415   -5.2444 S.3       12 UNK        -0.2240 
     71 C71        31.3252   -0.4019   -3.7876 C.3       12 UNK         0.0194 
     72 H72        30.5878    0.5065    0.5912 H         1 UNK         0.0906 
     73 H73        29.0142    0.6395    1.3810 H         1 UNK         0.0906 
     74 H74        30.1121   -0.6731    1.8145 H         1 UNK         0.0906 
     75 H75        29.4739   -2.6319    0.9204 H         1 UNK         0.3140 
     76 H76        28.8381   -2.9057   -1.8784 H         1 UNK         0.1085 
     77 H77        28.6433   -5.0463    0.2979 H         1 UNK         0.0836 
     78 H78        28.6977   -5.3090   -1.4249 H         1 UNK         0.0836 
     79 H79        32.4333   -5.3843   -2.2328 H         1 UNK         0.0731 
     80 H80        30.8971   -6.1875   -2.4460 H         1 UNK         0.0731 
     81 H81        31.8464   -2.5291   -2.1744 H         1 UNK         0.1312 
     82 H82        30.0451   -1.5353   -5.9317 H         1 UNK         0.1406 
     83 H83        30.0998   -5.6068   -4.6003 H         1 UNK         0.1631 
     84 H84        29.9367   -4.8496   -7.1563 H         1 UNK         0.0717 
     85 H85        29.3246   -3.2446   -7.4283 H         1 UNK         0.0717 
     86 H86        25.9290   -3.6533   -5.2141 H         1 UNK         0.0934 
     87 H87        27.4038   -2.8029   -4.9285 H         1 UNK         0.0934 
     88 H88        26.3148   -2.6641   -7.7618 H         1 UNK         0.0739 
     89 H89        24.6166   -1.8761   -5.5972 H         1 UNK         0.3093 
     90 H90        22.6036    0.3870   -7.4342 H         1 UNK         0.0818 
     91 H91        20.8195   -1.2330   -6.8406 H         1 UNK         0.0819 
     92 H92        21.7743   -1.8464   -8.1794 H         1 UNK         0.0819 
     93 H93        22.0175   -2.4982   -6.5649 H         1 UNK         0.0819 
     94 H94        22.4290   -0.7805   -4.8014 H         1 UNK         0.3041 
     95 H95        24.3640    1.7449   -3.1711 H         1 UNK         0.0784 
     96 H96        22.0525    2.6745   -3.4380 H         1 UNK         0.0793 
     97 H97        21.3689    1.0936   -3.0850 H         1 UNK         0.0793 
     98 H98        22.2874    1.9598   -1.8530 H         1 UNK         0.0793 
     99 H99        23.0939   -0.4054   -1.9623 H         1 UNK         0.3024 
    100 H100       24.6199   -1.8715   -0.9009 H         1 UNK         0.1171 
    101 H101       23.0805   -3.1164   -2.4607 H         1 UNK         0.0786 
    102 H102       24.4582   -3.6900   -3.3898 H         1 UNK         0.0786 
    103 H103       24.2305   -4.2191   -1.7268 H         1 UNK         0.0786 
    104 H104       26.9352   -2.0703   -2.5510 H         1 UNK         0.2977 
    105 H105       26.5963   -0.2533   -5.1351 H         1 UNK         0.3127 
    106 H106       29.0868    0.8669   -5.9265 H         1 UNK         0.0770 
    107 H107       26.7857    2.0770   -4.2972 H         1 UNK         0.0814 
    108 H108       28.4437    2.6677   -4.3249 H         1 UNK         0.0814 
    109 H109       28.0893    1.0865   -3.6447 H         1 UNK         0.0814 
    110 H110       25.9045    1.3376   -7.2795 H         1 UNK         0.2983 
    111 H111       26.6338    3.7984   -8.7252 H         1 UNK         0.0947 
    112 H112       24.3998    3.5265   -9.7622 H         1 UNK         0.0806 
    113 H113       24.2760    3.4358   -8.0117 H         1 UNK         0.0806 
    114 H114       24.1876    1.9673   -8.9801 H         1 UNK         0.0806 
    115 H115       26.2799    0.2889   -9.3624 H         1 UNK         0.3000 
    116 H116       26.8102    0.4481  -12.1708 H         1 UNK         0.0850 
    117 H117       26.9143   -2.0451  -11.9960 H         1 UNK         0.0810 
    118 H118       25.5020   -1.3975  -11.1753 H         1 UNK         0.0810 
    119 H119       26.8958   -1.9315  -10.2405 H         1 UNK         0.0810 
    120 H120       28.8820   -0.5276   -9.3835 H         1 UNK         0.3040 
    121 H121       31.2614   -0.7638  -11.1541 H         1 UNK         0.0766 
    122 H122       32.2692   -1.8474   -9.1635 H         1 UNK         0.0812 
    123 H123       30.7244   -2.6067   -9.5118 H         1 UNK         0.0812 
    124 H124       30.8643   -1.4486   -8.1885 H         1 UNK         0.0812 
    125 H125       33.2411    0.2947  -10.5458 H         1 UNK         0.3205 
    126 H126       32.9944    2.9951   -9.4997 H         1 UNK         0.0754 
    127 H127       35.4606    3.0662   -9.8740 H         1 UNK         0.0769 
    128 H128       34.6156    2.4876  -11.2990 H         1 UNK         0.0769 
    129 H129       35.4725    1.3508  -10.2594 H         1 UNK         0.0769 
    130 H130       34.4976   -0.0272   -8.3875 H         1 UNK         0.2981 
    131 H131       35.3591   -0.7503   -6.5251 H         1 UNK         0.0541 
    132 H132       36.4244    1.9842   -6.8204 H         1 UNK         0.3459 
    133 H133       36.9418    2.3793   -5.2000 H         1 UNK         0.3459 
    134 H134       33.7588   -1.1628   -4.7330 H         1 UNK         0.0612 
    135 H135       33.0806   -1.4167   -6.3082 H         1 UNK         0.0612 
    136 H136       30.4182    0.1218   -3.4842 H         1 UNK         0.0624 
    137 H137       32.0304   -0.3032   -2.9609 H         1 UNK         0.0624 
@<TRIPOS>BOND
     1    1    2 1    
     2    1   72 1    
     3    1   73 1    
     4    1   74 1    
     5    2    3 2    
     6    2    4 am   BACKBONE|DICT|INTERRES
     7    4    5 1    
     8    4   75 1    
     9    5    6 1    
    10    5   35 1    
    11    5   76 1    
    12    6    7 1    
    13    6   77 1    
    14    6   78 1    
    15    7    8 1    
    16    8    9 1    
    17    8   79 1    
    18    8   80 1    
    19    9   10 ar   
    20    9   14 ar   
    21   10   11 ar   
    22   10   81 1    
    23   11   12 ar   
    24   11   71 1    
    25   12   13 ar   
    26   12   82 1    
    27   13   14 ar   
    28   13   15 1    
    29   14   83 1    
    30   15   16 1    
    31   15   84 1    
    32   15   85 1    
    33   16   17 1    
    34   17   18 1    
    35   17   86 1    
    36   17   87 1    
    37   18   19 1    
    38   18   37 1    
    39   18   88 1    
    40   19   20 am   BACKBONE|DICT|INTERRES
    41   19   89 1    
    42   20   21 2    
    43   20   22 1    
    44   22   23 1    
    45   22   24 1    
    46   22   90 1    
    47   23   91 1    
    48   23   92 1    
    49   23   93 1    
    50   24   25 am   BACKBONE|DICT|INTERRES
    51   24   94 1    
    52   25   26 2    
    53   25   27 1    
    54   27   28 1    
    55   27   29 1    
    56   27   95 1    
    57   28   96 1    
    58   28   97 1    
    59   28   98 1    
    60   29   30 am   BACKBONE|DICT|INTERRES
    61   29   99 1    
    62   30   31 2    
    63   30   32 1    
    64   32   33 1    
    65   32   34 1    
    66   32  100 1    
    67   33  101 1    
    68   33  102 1    
    69   33  103 1    
    70   34   35 am   BACKBONE|DICT|INTERRES
    71   34  104 1    
    72   35   36 2    
    73   37   38 2    
    74   37   39 am   BACKBONE|DICT|INTERRES
    75   39   40 1    
    76   39  105 1    
    77   40   41 1    
    78   40   42 1    
    79   40  106 1    
    80   41  107 1    
    81   41  108 1    
    82   41  109 1    
    83   42   43 2    
    84   42   44 am   BACKBONE|DICT|INTERRES
    85   44   45 1    
    86   44  110 1    
    87   45   46 1    
    88   45   47 1    
    89   45  111 1    
    90   46  112 1    
    91   46  113 1    
    92   46  114 1    
    93   47   48 2    
    94   47   49 am   BACKBONE|DICT|INTERRES
    95   49   50 1    
    96   49  115 1    
    97   50   51 1    
    98   50   52 1    
    99   50  116 1    
   100   51  117 1    
   101   51  118 1    
   102   51  119 1    
   103   52   53 2    
   104   52   54 am   BACKBONE|DICT|INTERRES
   105   54   55 1    
   106   54  120 1    
   107   55   56 1    
   108   55   57 1    
   109   55  121 1    
   110   56  122 1    
   111   56  123 1    
   112   56  124 1    
   113   57   58 2    
   114   57   59 am   BACKBONE|DICT|INTERRES
   115   59   60 1    
   116   59  125 1    
   117   60   61 1    
   118   60   62 1    
   119   60  126 1    
   120   61  127 1    
   121   61  128 1    
   122   61  129 1    
   123   62   63 2    
   124   62   64 am   BACKBONE|DICT|INTERRES
   125   64   65 1    
   126   64  130 1    
   127   65   66 1    
   128   65   69 1    
   129   65  131 1    
   130   66   67 am   BACKBONE|DICT|INTERRES
   131   66   68 2    
   132   67  132 1    
   133   67  133 1    
   134   69   70 1    
   135   69  134 1    
   136   69  135 1    
   137   70   71 1    
   138   71  136 1    
   139   71  137 1    
@<TRIPOS>SUBSTRUCTURE
     1 UNK         1 GROUP             0       ****    0 ROOT    
