@<TRIPOS>MOLECULE
3R137
137   139    1
SMALL
USER_CHARGES


@<TRIPOS>ATOM
      1 CA         24.7864   -6.8155    0.2949 C.3       0 UNK        -0.2020 
      2 C          25.7103   -5.6071    0.2846 C.2       0 UNK         0.4855 
      3 O          25.8929   -4.9679    1.3208 O.2       0 UNK        -0.5197 
      4 N          26.2969   -5.2916   -0.8778 N.am      1 UNK        -0.4892 
      5 CA         27.2184   -4.1646   -1.0754 C.3       1 UNK         0.0835 
      6 C6         27.9374   -4.2475   -2.4431 C.3       12 UNK        -0.0855 
      7 S7         29.0724   -5.6691   -2.5792 S.3       12 UNK        -0.2931 
      8 C8         30.5094   -5.1344   -1.5865 C.3       12 UNK         0.0378 
      9 C9         31.0484   -3.7746   -2.0110 C.ar      12 UNK        -0.0802 
     10 C10        31.8134   -3.6486   -3.1740 C.ar      12 UNK        -0.0944 
     11 C11        32.2865   -2.3961   -3.5773 C.ar      12 UNK        -0.0787 
     12 C12        32.0032   -1.2687   -2.8014 C.ar      12 UNK        -0.0862 
     13 C13        31.2389   -1.3812   -1.6363 C.ar      12 UNK        -0.0733 
     14 C14        30.7713   -2.6386   -1.2431 C.ar      12 UNK        -0.0832 
     15 C15        30.9109   -0.1512   -0.7963 C.3       12 UNK         0.0240 
     16 S16        30.1661    1.2083   -1.7597 S.3       12 UNK        -0.2522 
     17 C17        28.7249    0.3973   -2.5324 C.3       12 UNK        -0.0967 
     18 CA         28.7856    0.4524   -4.0796 C.3       5 UNK         0.0660 
     19 N          28.0031   -0.6203   -4.6950 N.am      5 UNK        -0.4015 
     20 C          28.1779   -1.0569   -5.9509 C.2       4 UNK         0.4946 
     21 O          29.0748   -0.6642   -6.6941 O.2       4 UNK        -0.5353 
     22 CA         27.1776   -2.0964   -6.4856 C.3       4 UNK         0.0277 
     23 CB         27.7648   -3.5123   -6.3768 C.3       4 UNK        -0.1981 
     24 N          25.8643   -2.0389   -5.8325 N.am      4 UNK        -0.4209 
     25 C          25.0017   -1.0250   -5.9970 C.2       3 UNK         0.4942 
     26 O          25.2268   -0.0459   -6.7049 O.2       3 UNK        -0.5208 
     27 CA         23.6861   -1.0809   -5.2060 C.3       3 UNK         0.0250 
     28 CB         22.6649   -1.9831   -5.9173 C.3       3 UNK        -0.1990 
     29 N          23.8312   -1.5046   -3.8095 N.am      3 UNK        -0.4232 
     30 C          24.6217   -0.9242   -2.8942 C.2       2 UNK         0.4993 
     31 O          25.4319   -0.0317   -3.1514 O.2       2 UNK        -0.5286 
     32 CA         24.5082   -1.4585   -1.4593 C.3       2 UNK         0.0209 
     33 CB         23.0491   -1.6893   -1.0196 C.3       2 UNK        -0.1931 
     34 N          25.2577   -2.7083   -1.3491 N.am      2 UNK        -0.4546 
     35 C          26.5321   -2.7906   -0.9458 C.2       1 UNK         0.5154 
     36 O          27.1753   -1.8384   -0.5053 O.2       1 UNK        -0.5181 
     37 C          28.3268    1.8222   -4.6154 C.2       5 UNK         0.5014 
     38 O          29.1667    2.6588   -4.9517 O.2       5 UNK        -0.5248 
     39 N          27.0006    2.0172   -4.6910 N.am      6 UNK        -0.4434 
     40 CA         26.3615    3.2245   -5.2173 C.3       6 UNK         0.0363 
     41 CB         24.8520    3.1692   -4.9320 C.3       6 UNK        -0.1936 
     42 C          26.6279    3.4381   -6.7174 C.2       6 UNK         0.5081 
     43 O          26.9184    4.5627   -7.1282 O.2       6 UNK        -0.5248 
     44 N          26.5309    2.3619   -7.5077 N.am      7 UNK        -0.4718 
     45 CA         26.8368    2.3481   -8.9346 C.3       7 UNK         0.0273 
     46 CB         26.1378    1.1445   -9.5924 C.3       7 UNK        -0.1935 
     47 C          28.3553    2.3013   -9.1551 C.2       7 UNK         0.5018 
     48 O          28.9348    1.2150   -9.1848 O.2       7 UNK        -0.5186 
     49 N          28.9745    3.4724   -9.3568 N.am      8 UNK        -0.4240 
     50 CA         30.4072    3.6273   -9.6514 C.3       8 UNK         0.0235 
     51 CB         30.7400    5.1222   -9.7802 C.3       8 UNK        -0.2000 
     52 C          30.8862    2.8577  -10.8997 C.2       8 UNK         0.4941 
     53 O          32.0576    2.4855  -10.9687 O.2       8 UNK        -0.5273 
     54 N          29.9658    2.6068  -11.8427 N.am      9 UNK        -0.4262 
     55 CA         30.1637    1.7529  -13.0144 C.3       9 UNK         0.0264 
     56 CB         28.9928    1.9591  -13.9894 C.3       9 UNK        -0.1955 
     57 C          30.3215    0.2575  -12.6738 C.2       9 UNK         0.5031 
     58 O          30.9363   -0.4614  -13.4633 O.2       9 UNK        -0.5390 
     59 N          29.7780   -0.1905  -11.5305 N.am      10 UNK        -0.4204 
     60 CA         29.9880   -1.5358  -10.9958 C.3       10 UNK         0.0237 
     61 CB         28.7784   -1.9820  -10.1548 C.3       10 UNK        -0.1985 
     62 C          31.2940   -1.5541  -10.1919 C.2       10 UNK         0.4970 
     63 O          32.2315   -2.2431  -10.5961 O.2       10 UNK        -0.4914 
     64 N          31.3501   -0.7550   -9.1189 N.am      11 UNK        -0.4285 
     65 CA         32.5670   -0.4812   -8.3392 C.3       11 UNK         0.1007 
     66 C          32.4372    0.7539   -7.4069 C.2       11 UNK         0.5703 
     67 N          31.2494    1.1117   -6.9370 N.am      11 UNK        -0.7361 
     68 O          33.4344    1.4131   -7.1234 O.2       11 UNK        -0.4986 
     69 C69        33.1521   -1.7237   -7.6047 C.3       12 UNK        -0.0947 
     70 S70        32.0510   -2.4220   -6.3273 S.3       12 UNK        -0.2240 
     71 C71        33.1004   -2.2548   -4.8522 C.3       12 UNK         0.0194 
     72 H72        25.1478   -7.5577    1.0062 H         1 UNK         0.0906 
     73 H73        23.7820   -6.5173    0.5946 H         1 UNK         0.0906 
     74 H74        24.7214   -7.2890   -0.6846 H         1 UNK         0.0906 
     75 H75        26.1418   -5.8769   -1.6870 H         1 UNK         0.3140 
     76 H76        27.9684   -4.2078   -0.2831 H         1 UNK         0.1085 
     77 H77        28.4898   -3.3334   -2.6676 H         1 UNK         0.0836 
     78 H78        27.1976   -4.3380   -3.2398 H         1 UNK         0.0836 
     79 H79        31.2988   -5.8813   -1.6825 H         1 UNK         0.0731 
     80 H80        30.2327   -5.1259   -0.5313 H         1 UNK         0.0731 
     81 H81        32.0238   -4.5217   -3.7767 H         1 UNK         0.1312 
     82 H82        32.3636   -0.2971   -3.1113 H         1 UNK         0.1406 
     83 H83        30.1756   -2.7306   -0.3448 H         1 UNK         0.1631 
     84 H84        31.8268    0.2103   -0.3273 H         1 UNK         0.0717 
     85 H85        30.2287   -0.4079    0.0159 H         1 UNK         0.0717 
     86 H86        28.6996   -0.6420   -2.2078 H         1 UNK         0.0934 
     87 H87        27.8081    0.8426   -2.1409 H         1 UNK         0.0934 
     88 H88        29.8246    0.3054   -4.3849 H         1 UNK         0.0739 
     89 H89        27.1951   -0.9359   -4.1765 H         1 UNK         0.3093 
     90 H90        27.0255   -1.8792   -7.5449 H         1 UNK         0.0818 
     91 H91        27.9952   -3.7804   -5.3469 H         1 UNK         0.0819 
     92 H92        27.0846   -4.2617   -6.7815 H         1 UNK         0.0819 
     93 H93        28.6969   -3.5843   -6.9398 H         1 UNK         0.0819 
     94 H94        25.6014   -2.8121   -5.2394 H         1 UNK         0.3041 
     95 H95        23.2818   -0.0666   -5.1883 H         1 UNK         0.0784 
     96 H96        22.5301   -1.6764   -6.9558 H         1 UNK         0.0793 
     97 H97        22.9803   -3.0272   -5.9243 H         1 UNK         0.0793 
     98 H98        21.6869   -1.9306   -5.4384 H         1 UNK         0.0793 
     99 H99        23.2105   -2.2386   -3.5016 H         1 UNK         0.3024 
    100 H100       24.9361   -0.6997   -0.7993 H         1 UNK         0.1171 
    101 H101       22.5704   -2.5058   -1.5609 H         1 UNK         0.0786 
    102 H102       22.9991   -1.9298    0.0426 H         1 UNK         0.0786 
    103 H103       22.4470   -0.7924   -1.1730 H         1 UNK         0.0786 
    104 H104       24.8100   -3.5494   -1.6833 H         1 UNK         0.2977 
    105 H105       26.3842    1.2849   -4.3514 H         1 UNK         0.3127 
    106 H106       26.7787    4.0800   -4.6821 H         1 UNK         0.0770 
    107 H107       24.3781    2.3210   -5.4271 H         1 UNK         0.0814 
    108 H108       24.3553    4.0734   -5.2864 H         1 UNK         0.0814 
    109 H109       24.6527    3.0863   -3.8634 H         1 UNK         0.0814 
    110 H110       26.2457    1.4737   -7.1001 H         1 UNK         0.2983 
    111 H111       26.4408    3.2561   -9.3948 H         1 UNK         0.0947 
    112 H112       26.3472    1.1054  -10.6620 H         1 UNK         0.0806 
    113 H113       25.0559    1.2018   -9.4730 H         1 UNK         0.0806 
    114 H114       26.4683    0.1987   -9.1607 H         1 UNK         0.0806 
    115 H115       28.4339    4.3217   -9.2653 H         1 UNK         0.3000 
    116 H116       30.9578    3.2272   -8.7981 H         1 UNK         0.0850 
    117 H117       31.8040    5.2698   -9.9714 H         1 UNK         0.0810 
    118 H118       30.5001    5.6626   -8.8642 H         1 UNK         0.0810 
    119 H119       30.1933    5.5889  -10.6005 H         1 UNK         0.0810 
    120 H120       29.0372    2.9772  -11.7044 H         1 UNK         0.3040 
    121 H121       31.0827    2.0732  -13.5101 H         1 UNK         0.0766 
    122 H122       28.9162    2.9998  -14.3049 H         1 UNK         0.0812 
    123 H123       28.0398    1.6700  -13.5443 H         1 UNK         0.0812 
    124 H124       29.1261    1.3589  -14.8907 H         1 UNK         0.0812 
    125 H125       29.3531    0.4742  -10.8893 H         1 UNK         0.3205 
    126 H126       30.0890   -2.2429  -11.8222 H         1 UNK         0.0754 
    127 H127       28.9267   -2.9905   -9.7669 H         1 UNK         0.0769 
    128 H128       27.8659   -1.9930  -10.7509 H         1 UNK         0.0769 
    129 H129       28.6068   -1.3309   -9.2993 H         1 UNK         0.0769 
    130 H130       30.5357   -0.2037   -8.8675 H         1 UNK         0.2981 
    131 H131       33.3127   -0.1821   -9.0785 H         1 UNK         0.0541 
    132 H132       30.4363    0.5076   -7.0474 H         1 UNK         0.3459 
    133 H133       31.1744    1.9221   -6.3434 H         1 UNK         0.3459 
    134 H134       33.3762   -2.5192   -8.3148 H         1 UNK         0.0612 
    135 H135       34.1163   -1.4682   -7.1625 H         1 UNK         0.0612 
    136 H136       33.6005   -1.2850   -4.8707 H         1 UNK         0.0624 
    137 H137       33.8853   -3.0120   -4.8786 H         1 UNK         0.0624 
@<TRIPOS>BOND
     1    1    2 1    
     2    1   72 1    
     3    1   73 1    
     4    1   74 1    
     5    2    3 2    
     6    2    4 am   BACKBONE|DICT|INTERRES
     7    4    5 1    
     8    4   75 1    
     9    5    6 1    
    10    5   35 1    
    11    5   76 1    
    12    6    7 1    
    13    6   77 1    
    14    6   78 1    
    15    7    8 1    
    16    8    9 1    
    17    8   79 1    
    18    8   80 1    
    19    9   10 ar   
    20    9   14 ar   
    21   10   11 ar   
    22   10   81 1    
    23   11   12 ar   
    24   11   71 1    
    25   12   13 ar   
    26   12   82 1    
    27   13   14 ar   
    28   13   15 1    
    29   14   83 1    
    30   15   16 1    
    31   15   84 1    
    32   15   85 1    
    33   16   17 1    
    34   17   18 1    
    35   17   86 1    
    36   17   87 1    
    37   18   19 1    
    38   18   37 1    
    39   18   88 1    
    40   19   20 am   BACKBONE|DICT|INTERRES
    41   19   89 1    
    42   20   21 2    
    43   20   22 1    
    44   22   23 1    
    45   22   24 1    
    46   22   90 1    
    47   23   91 1    
    48   23   92 1    
    49   23   93 1    
    50   24   25 am   BACKBONE|DICT|INTERRES
    51   24   94 1    
    52   25   26 2    
    53   25   27 1    
    54   27   28 1    
    55   27   29 1    
    56   27   95 1    
    57   28   96 1    
    58   28   97 1    
    59   28   98 1    
    60   29   30 am   BACKBONE|DICT|INTERRES
    61   29   99 1    
    62   30   31 2    
    63   30   32 1    
    64   32   33 1    
    65   32   34 1    
    66   32  100 1    
    67   33  101 1    
    68   33  102 1    
    69   33  103 1    
    70   34   35 am   BACKBONE|DICT|INTERRES
    71   34  104 1    
    72   35   36 2    
    73   37   38 2    
    74   37   39 am   BACKBONE|DICT|INTERRES
    75   39   40 1    
    76   39  105 1    
    77   40   41 1    
    78   40   42 1    
    79   40  106 1    
    80   41  107 1    
    81   41  108 1    
    82   41  109 1    
    83   42   43 2    
    84   42   44 am   BACKBONE|DICT|INTERRES
    85   44   45 1    
    86   44  110 1    
    87   45   46 1    
    88   45   47 1    
    89   45  111 1    
    90   46  112 1    
    91   46  113 1    
    92   46  114 1    
    93   47   48 2    
    94   47   49 am   BACKBONE|DICT|INTERRES
    95   49   50 1    
    96   49  115 1    
    97   50   51 1    
    98   50   52 1    
    99   50  116 1    
   100   51  117 1    
   101   51  118 1    
   102   51  119 1    
   103   52   53 2    
   104   52   54 am   BACKBONE|DICT|INTERRES
   105   54   55 1    
   106   54  120 1    
   107   55   56 1    
   108   55   57 1    
   109   55  121 1    
   110   56  122 1    
   111   56  123 1    
   112   56  124 1    
   113   57   58 2    
   114   57   59 am   BACKBONE|DICT|INTERRES
   115   59   60 1    
   116   59  125 1    
   117   60   61 1    
   118   60   62 1    
   119   60  126 1    
   120   61  127 1    
   121   61  128 1    
   122   61  129 1    
   123   62   63 2    
   124   62   64 am   BACKBONE|DICT|INTERRES
   125   64   65 1    
   126   64  130 1    
   127   65   66 1    
   128   65   69 1    
   129   65  131 1    
   130   66   67 am   BACKBONE|DICT|INTERRES
   131   66   68 2    
   132   67  132 1    
   133   67  133 1    
   134   69   70 1    
   135   69  134 1    
   136   69  135 1    
   137   70   71 1    
   138   71  136 1    
   139   71  137 1    
@<TRIPOS>SUBSTRUCTURE
     1 UNK         1 GROUP             0       ****    0 ROOT    
