@<TRIPOS>MOLECULE
3R137
137   139    1
SMALL
USER_CHARGES


@<TRIPOS>ATOM
      1 CA         29.2813   -2.5419    3.4123 C.3       0 UNK        -0.2020 
      2 C          29.4233   -1.9335    2.0250 C.2       0 UNK         0.4855 
      3 O          29.6840   -0.7358    1.9062 O.2       0 UNK        -0.5197 
      4 N          29.2639   -2.7510    0.9772 N.am      1 UNK        -0.4892 
      5 CA         29.3168   -2.3346   -0.4296 C.3       1 UNK         0.0835 
      6 C6         29.4614   -3.5456   -1.3844 C.3       12 UNK        -0.0855 
      7 S7         30.9667   -4.5152   -1.0288 S.3       12 UNK        -0.2931 
      8 C8         30.8613   -5.8340   -2.2821 C.3       12 UNK         0.0378 
      9 C9         30.9851   -5.2947   -3.7008 C.ar      12 UNK        -0.0802 
     10 C10        32.1348   -4.6017   -4.0921 C.ar      12 UNK        -0.0944 
     11 C11        32.2468   -4.0807   -5.3838 C.ar      12 UNK        -0.0787 
     12 C12        31.2115   -4.2890   -6.2993 C.ar      12 UNK        -0.0862 
     13 C13        30.0493   -4.9635   -5.9159 C.ar      12 UNK        -0.0733 
     14 C14        29.9459   -5.4752   -4.6187 C.ar      12 UNK        -0.0832 
     15 C15        28.8883   -5.0976   -6.8914 C.3       12 UNK         0.0240 
     16 S16        27.4382   -4.1336   -6.3510 S.3       12 UNK        -0.2522 
     17 C17        28.1094   -2.4361   -6.2526 C.3       12 UNK        -0.0967 
     18 CA         27.3239   -1.4285   -7.1214 C.3       5 UNK         0.0660 
     19 N          25.8860   -1.4319   -6.8465 N.am      5 UNK        -0.4015 
     20 C          24.9583   -0.8829   -7.6431 C.2       4 UNK         0.4946 
     21 O          25.2272   -0.3026   -8.6961 O.2       4 UNK        -0.5353 
     22 CA         23.4963   -0.9394   -7.1645 C.3       4 UNK         0.0277 
     23 CB         22.7920   -2.1746   -7.7467 C.3       4 UNK        -0.1981 
     24 N          23.3570   -0.9363   -5.7031 N.am      4 UNK        -0.4209 
     25 C          23.7774    0.0544   -4.9035 C.2       3 UNK         0.4942 
     26 O          24.2865    1.0925   -5.3298 O.2       3 UNK        -0.5208 
     27 CA         23.6540   -0.1440   -3.3789 C.3       3 UNK         0.0250 
     28 CB         23.2551   -1.5762   -2.9530 C.3       3 UNK        -0.1990 
     29 N          24.8810    0.2765   -2.6884 N.am      3 UNK        -0.4232 
     30 C          26.1204   -0.1981   -2.8917 C.2       2 UNK         0.4993 
     31 O          26.3816   -1.1056   -3.6831 O.2       2 UNK        -0.5286 
     32 CA         27.2755    0.4794   -2.1258 C.3       2 UNK         0.0209 
     33 CB         26.8241    1.4192   -0.9843 C.3       2 UNK        -0.1931 
     34 N          28.2755   -0.4768   -1.6404 N.am      2 UNK        -0.4546 
     35 C          28.0746   -1.4954   -0.7933 C.2       1 UNK         0.5154 
     36 O          26.9777   -1.7888   -0.3075 O.2       1 UNK        -0.5181 
     37 C          27.9448   -0.0201   -7.0298 C.2       5 UNK         0.5014 
     38 O          29.0037    0.1900   -7.6218 O.2       5 UNK        -0.5248 
     39 N          27.2839    0.9358   -6.3551 N.am      6 UNK        -0.4434 
     40 CA         27.6756    2.3495   -6.3641 C.3       6 UNK         0.0363 
     41 CB         26.9156    3.1233   -5.2758 C.3       6 UNK        -0.1936 
     42 C          27.4580    3.0170   -7.7329 C.2       6 UNK         0.5081 
     43 O          28.1807    3.9571   -8.0598 O.2       6 UNK        -0.5248 
     44 N          26.4871    2.5196   -8.5100 N.am      7 UNK        -0.4718 
     45 CA         26.2286    2.9588   -9.8792 C.3       7 UNK         0.0273 
     46 CB         24.7171    2.9085  -10.1590 C.3       7 UNK        -0.1935 
     47 C          26.9995    2.0943  -10.8860 C.2       7 UNK         0.5018 
     48 O          27.6257    2.6407  -11.7943 O.2       7 UNK        -0.5186 
     49 N          26.9283    0.7656  -10.7186 N.am      8 UNK        -0.4240 
     50 CA         27.4681   -0.2090  -11.6682 C.3       8 UNK         0.0235 
     51 CB         26.8248   -1.5825  -11.4156 C.3       8 UNK        -0.2000 
     52 C          29.0012   -0.3229  -11.6610 C.2       8 UNK         0.4941 
     53 O          29.5827   -0.4987  -12.7327 O.2       8 UNK        -0.5273 
     54 N          29.6234   -0.2567  -10.4755 N.am      9 UNK        -0.4262 
     55 CA         31.0551   -0.5221  -10.2838 C.3       9 UNK         0.0264 
     56 CB         31.1992   -1.8376   -9.4984 C.3       9 UNK        -0.1955 
     57 C          31.8066    0.6196   -9.5762 C.2       9 UNK         0.5031 
     58 O          33.0348    0.5601   -9.5063 O.2       9 UNK        -0.5390 
     59 N          31.0766    1.6215   -9.0624 N.am      10 UNK        -0.4204 
     60 CA         31.5482    2.7270   -8.2166 C.3       10 UNK         0.0237 
     61 CB         32.5489    3.6314   -8.9689 C.3       10 UNK        -0.1985 
     62 C          32.0652    2.2585   -6.8394 C.2       10 UNK         0.4970 
     63 O          32.9537    2.8960   -6.2719 O.2       10 UNK        -0.4914 
     64 N          31.4841    1.1715   -6.3151 N.am      11 UNK        -0.4285 
     65 CA         31.8359    0.5498   -5.0254 C.3       11 UNK         0.1007 
     66 C          30.9510    1.0490   -3.8440 C.2       11 UNK         0.5703 
     67 N          30.4103    2.2603   -3.8945 N.am      11 UNK        -0.7361 
     68 O          30.7446    0.3361   -2.8634 O.2       11 UNK        -0.4986 
     69 C69        31.8679   -0.9978   -5.1294 C.3       12 UNK        -0.0947 
     70 S70        33.0359   -1.6004   -6.3969 S.3       12 UNK        -0.2240 
     71 C71        33.4699   -3.2587   -5.7711 C.3       12 UNK         0.0194 
     72 H72        29.0625   -3.6088    3.3699 H         1 UNK         0.0906 
     73 H73        30.2033   -2.4075    3.9773 H         1 UNK         0.0906 
     74 H74        28.4738   -2.0518    3.9557 H         1 UNK         0.0906 
     75 H75        29.0446   -3.7246    1.1315 H         1 UNK         0.3140 
     76 H76        30.1981   -1.6996   -0.5524 H         1 UNK         0.1085 
     77 H77        28.5920   -4.2025   -1.3142 H         1 UNK         0.0836 
     78 H78        29.5092   -3.2053   -2.4213 H         1 UNK         0.0836 
     79 H79        31.6635   -6.5521   -2.1066 H         1 UNK         0.0731 
     80 H80        29.9257   -6.3794   -2.1483 H         1 UNK         0.0731 
     81 H81        32.9306   -4.4458   -3.3764 H         1 UNK         0.1312 
     82 H82        31.2957   -3.8829   -7.2976 H         1 UNK         0.1406 
     83 H83        29.0433   -5.9919   -4.3213 H         1 UNK         0.1631 
     84 H84        28.6065   -6.1481   -6.9755 H         1 UNK         0.0717 
     85 H85        29.1774   -4.7740   -7.8927 H         1 UNK         0.0717 
     86 H86        29.1513   -2.4445   -6.5722 H         1 UNK         0.0934 
     87 H87        28.1242   -2.1342   -5.2049 H         1 UNK         0.0934 
     88 H88        27.4468   -1.7443   -8.1582 H         1 UNK         0.0739 
     89 H89        25.6044   -1.8559   -5.9729 H         1 UNK         0.3093 
     90 H90        22.9965   -0.0468   -7.5470 H         1 UNK         0.0818 
     91 H91        21.7315   -2.1839   -7.4942 H         1 UNK         0.0819 
     92 H92        22.8635   -2.1861   -8.8354 H         1 UNK         0.0819 
     93 H93        23.2341   -3.1028   -7.3819 H         1 UNK         0.0819 
     94 H94        22.9532   -1.7592   -5.2791 H         1 UNK         0.3041 
     95 H95        22.8654    0.5337   -3.0489 H         1 UNK         0.0784 
     96 H96        22.2717   -1.8486   -3.3380 H         1 UNK         0.0793 
     97 H97        23.9710   -2.3234   -3.2982 H         1 UNK         0.0793 
     98 H98        23.2000   -1.6570   -1.8672 H         1 UNK         0.0793 
     99 H99        24.7733    1.0452   -2.0421 H         1 UNK         0.3024 
    100 H100       27.7992    1.0846   -2.8649 H         1 UNK         0.1171 
    101 H101       27.6841    1.8555   -0.4756 H         1 UNK         0.0786 
    102 H102       26.2317    0.8944   -0.2335 H         1 UNK         0.0786 
    103 H103       26.2288    2.2514   -1.3618 H         1 UNK         0.0786 
    104 H104       29.2129   -0.3303   -2.0099 H         1 UNK         0.2977 
    105 H105       26.4024    0.7089   -5.9088 H         1 UNK         0.3127 
    106 H106       28.7414    2.4050   -6.1385 H         1 UNK         0.0770 
    107 H107       25.8464    3.1700   -5.4836 H         1 UNK         0.0814 
    108 H108       27.2744    4.1515   -5.2127 H         1 UNK         0.0814 
    109 H109       27.0473    2.6779   -4.2927 H         1 UNK         0.0814 
    110 H110       25.9518    1.7266   -8.1793 H         1 UNK         0.2983 
    111 H111       26.5561    3.9935  -10.0064 H         1 UNK         0.0947 
    112 H112       24.4984    3.2375  -11.1758 H         1 UNK         0.0806 
    113 H113       24.1690    3.5641   -9.4822 H         1 UNK         0.0806 
    114 H114       24.3122    1.9018  -10.0481 H         1 UNK         0.0806 
    115 H115       26.3501    0.3982   -9.9645 H         1 UNK         0.3000 
    116 H116       27.1742    0.1113  -12.6706 H         1 UNK         0.0850 
    117 H117       27.1627   -2.3126  -12.1523 H         1 UNK         0.0810 
    118 H118       25.7380   -1.5307  -11.4864 H         1 UNK         0.0810 
    119 H119       27.0758   -1.9755  -10.4311 H         1 UNK         0.0810 
    120 H120       29.0786   -0.1198   -9.6315 H         1 UNK         0.3040 
    121 H121       31.5523   -0.6529  -11.2470 H         1 UNK         0.0766 
    122 H122       32.2491   -2.0988   -9.3598 H         1 UNK         0.0812 
    123 H123       30.7470   -1.7639   -8.5090 H         1 UNK         0.0812 
    124 H124       30.7266   -2.6680  -10.0229 H         1 UNK         0.0812 
    125 H125       30.0728    1.5446   -9.1446 H         1 UNK         0.3205 
    126 H126       30.6712    3.3361   -8.0037 H         1 UNK         0.0754 
    127 H127       32.7600    4.5374   -8.3995 H         1 UNK         0.0769 
    128 H128       32.1522    3.9434   -9.9350 H         1 UNK         0.0769 
    129 H129       33.5015    3.1303   -9.1419 H         1 UNK         0.0769 
    130 H130       30.7280    0.7292   -6.8277 H         1 UNK         0.2981 
    131 H131       32.8478    0.8568   -4.7562 H         1 UNK         0.0541 
    132 H132       30.6180    2.8771   -4.6621 H         1 UNK         0.3459 
    133 H133       29.8679    2.5905   -3.1136 H         1 UNK         0.3459 
    134 H134       30.8746   -1.3853   -5.3566 H         1 UNK         0.0612 
    135 H135       32.1583   -1.4350   -4.1722 H         1 UNK         0.0612 
    136 H136       34.0312   -3.7915   -6.5395 H         1 UNK         0.0624 
    137 H137       34.1425   -3.1403   -4.9202 H         1 UNK         0.0624 
@<TRIPOS>BOND
     1    1    2 1    
     2    1   72 1    
     3    1   73 1    
     4    1   74 1    
     5    2    3 2    
     6    2    4 am   BACKBONE|DICT|INTERRES
     7    4    5 1    
     8    4   75 1    
     9    5    6 1    
    10    5   35 1    
    11    5   76 1    
    12    6    7 1    
    13    6   77 1    
    14    6   78 1    
    15    7    8 1    
    16    8    9 1    
    17    8   79 1    
    18    8   80 1    
    19    9   10 ar   
    20    9   14 ar   
    21   10   11 ar   
    22   10   81 1    
    23   11   12 ar   
    24   11   71 1    
    25   12   13 ar   
    26   12   82 1    
    27   13   14 ar   
    28   13   15 1    
    29   14   83 1    
    30   15   16 1    
    31   15   84 1    
    32   15   85 1    
    33   16   17 1    
    34   17   18 1    
    35   17   86 1    
    36   17   87 1    
    37   18   19 1    
    38   18   37 1    
    39   18   88 1    
    40   19   20 am   BACKBONE|DICT|INTERRES
    41   19   89 1    
    42   20   21 2    
    43   20   22 1    
    44   22   23 1    
    45   22   24 1    
    46   22   90 1    
    47   23   91 1    
    48   23   92 1    
    49   23   93 1    
    50   24   25 am   BACKBONE|DICT|INTERRES
    51   24   94 1    
    52   25   26 2    
    53   25   27 1    
    54   27   28 1    
    55   27   29 1    
    56   27   95 1    
    57   28   96 1    
    58   28   97 1    
    59   28   98 1    
    60   29   30 am   BACKBONE|DICT|INTERRES
    61   29   99 1    
    62   30   31 2    
    63   30   32 1    
    64   32   33 1    
    65   32   34 1    
    66   32  100 1    
    67   33  101 1    
    68   33  102 1    
    69   33  103 1    
    70   34   35 am   BACKBONE|DICT|INTERRES
    71   34  104 1    
    72   35   36 2    
    73   37   38 2    
    74   37   39 am   BACKBONE|DICT|INTERRES
    75   39   40 1    
    76   39  105 1    
    77   40   41 1    
    78   40   42 1    
    79   40  106 1    
    80   41  107 1    
    81   41  108 1    
    82   41  109 1    
    83   42   43 2    
    84   42   44 am   BACKBONE|DICT|INTERRES
    85   44   45 1    
    86   44  110 1    
    87   45   46 1    
    88   45   47 1    
    89   45  111 1    
    90   46  112 1    
    91   46  113 1    
    92   46  114 1    
    93   47   48 2    
    94   47   49 am   BACKBONE|DICT|INTERRES
    95   49   50 1    
    96   49  115 1    
    97   50   51 1    
    98   50   52 1    
    99   50  116 1    
   100   51  117 1    
   101   51  118 1    
   102   51  119 1    
   103   52   53 2    
   104   52   54 am   BACKBONE|DICT|INTERRES
   105   54   55 1    
   106   54  120 1    
   107   55   56 1    
   108   55   57 1    
   109   55  121 1    
   110   56  122 1    
   111   56  123 1    
   112   56  124 1    
   113   57   58 2    
   114   57   59 am   BACKBONE|DICT|INTERRES
   115   59   60 1    
   116   59  125 1    
   117   60   61 1    
   118   60   62 1    
   119   60  126 1    
   120   61  127 1    
   121   61  128 1    
   122   61  129 1    
   123   62   63 2    
   124   62   64 am   BACKBONE|DICT|INTERRES
   125   64   65 1    
   126   64  130 1    
   127   65   66 1    
   128   65   69 1    
   129   65  131 1    
   130   66   67 am   BACKBONE|DICT|INTERRES
   131   66   68 2    
   132   67  132 1    
   133   67  133 1    
   134   69   70 1    
   135   69  134 1    
   136   69  135 1    
   137   70   71 1    
   138   71  136 1    
   139   71  137 1    
@<TRIPOS>SUBSTRUCTURE
     1 UNK         1 GROUP             0       ****    0 ROOT    
