@<TRIPOS>MOLECULE
3R137
137   139    1
SMALL
USER_CHARGES


@<TRIPOS>ATOM
      1 CA         27.7452   -8.3138    0.9004 C.3       0 UNK        -0.2020 
      2 C          27.6061   -6.8411    1.2553 C.2       0 UNK         0.4855 
      3 O          26.9542   -6.5098    2.2458 O.2       0 UNK        -0.5197 
      4 N          28.2147   -5.9545    0.4552 N.am      1 UNK        -0.4892 
      5 CA         28.1683   -4.4959    0.6343 C.3       1 UNK         0.0835 
      6 C6         29.2892   -3.8010   -0.1817 C.3       12 UNK        -0.0855 
      7 S7         29.7976   -2.2063    0.5417 S.3       12 UNK        -0.2931 
      8 C8         31.3607   -1.8977   -0.3398 C.3       12 UNK         0.0378 
      9 C9         31.1324   -1.6403   -1.8223 C.ar      12 UNK        -0.0802 
     10 C10        31.4549   -2.6172   -2.7697 C.ar      12 UNK        -0.0944 
     11 C11        31.2515   -2.3769   -4.1320 C.ar      12 UNK        -0.0787 
     12 C12        30.7134   -1.1544   -4.5445 C.ar      12 UNK        -0.0862 
     13 C13        30.3897   -0.1708   -3.6059 C.ar      12 UNK        -0.0733 
     14 C14        30.6065   -0.4165   -2.2471 C.ar      12 UNK        -0.0832 
     15 C15        29.8064    1.1565   -4.0596 C.3       12 UNK         0.0240 
     16 S16        28.0248    1.2366   -3.7108 S.3       12 UNK        -0.2522 
     17 C17        27.5500    2.6630   -4.7388 C.3       12 UNK        -0.0967 
     18 CA         27.0119    2.2132   -6.1182 C.3       5 UNK         0.0660 
     19 N          25.8250    1.3509   -5.9859 N.am      5 UNK        -0.4015 
     20 C          25.1667    0.7316   -6.9744 C.2       4 UNK         0.4946 
     21 O          25.3965    0.9174   -8.1700 O.2       4 UNK        -0.5353 
     22 CA         24.1093   -0.3014   -6.5541 C.3       4 UNK         0.0277 
     23 CB         23.2023   -0.7189   -7.7272 C.3       4 UNK        -0.1981 
     24 N          24.7708   -1.4906   -6.0155 N.am      4 UNK        -0.4209 
     25 C          25.2125   -1.6112   -4.7581 C.2       3 UNK         0.4942 
     26 O          25.0553   -0.7446   -3.8941 O.2       3 UNK        -0.5208 
     27 CA         26.0097   -2.8860   -4.4363 C.3       3 UNK         0.0250 
     28 CB         27.5094   -2.6545   -4.6860 C.3       3 UNK        -0.1990 
     29 N          25.8231   -3.3102   -3.0489 N.am      3 UNK        -0.4232 
     30 C          24.6938   -3.8297   -2.5484 C.2       2 UNK         0.4993 
     31 O          23.6904   -4.0546   -3.2281 O.2       2 UNK        -0.5286 
     32 CA         24.6986   -4.1813   -1.0490 C.3       2 UNK         0.0209 
     33 CB         23.7227   -5.3256   -0.7124 C.3       2 UNK        -0.1931 
     34 N          26.0423   -4.5600   -0.6005 N.am      2 UNK        -0.4546 
     35 C          26.7751   -3.9055    0.3109 C.2       1 UNK         0.5154 
     36 O          26.3902   -2.8894    0.8913 O.2       1 UNK        -0.5181 
     37 C          26.8604    3.4287   -7.0592 C.2       5 UNK         0.5014 
     38 O          27.8775    3.9670   -7.4978 O.2       5 UNK        -0.5248 
     39 N          25.6214    3.8312   -7.3777 N.am      6 UNK        -0.4434 
     40 CA         25.3127    4.8264   -8.4092 C.3       6 UNK         0.0363 
     41 CB         23.8176    5.1772   -8.3452 C.3       6 UNK        -0.1936 
     42 C          25.6971    4.3631   -9.8293 C.2       6 UNK         0.5081 
     43 O          26.0337    5.2038  -10.6636 O.2       6 UNK        -0.5248 
     44 N          25.6503    3.0462  -10.0712 N.am      7 UNK        -0.4718 
     45 CA         26.1032    2.3973  -11.3010 C.3       7 UNK         0.0273 
     46 CB         25.0203    1.4210  -11.7901 C.3       7 UNK        -0.1935 
     47 C          27.4271    1.6589  -11.0581 C.2       7 UNK         0.5018 
     48 O          28.3592    1.8066  -11.8490 O.2       7 UNK        -0.5186 
     49 N          27.5066    0.9023   -9.9545 N.am      8 UNK        -0.4240 
     50 CA         28.6634    0.1091   -9.5314 C.3       8 UNK         0.0235 
     51 CB         28.1730   -1.0482   -8.6391 C.3       8 UNK        -0.2000 
     52 C          29.7407    0.9660   -8.8395 C.2       8 UNK         0.4941 
     53 O          30.2087    0.6108   -7.7546 O.2       8 UNK        -0.5273 
     54 N          30.1283    2.0771   -9.4785 N.am      9 UNK        -0.4262 
     55 CA         31.2062    2.9650   -9.0429 C.3       9 UNK         0.0264 
     56 CB         31.2384    4.2099   -9.9437 C.3       9 UNK        -0.1955 
     57 C          32.5446    2.2123   -9.0787 C.2       9 UNK         0.5031 
     58 O          32.9248    1.7144  -10.1414 O.2       9 UNK        -0.5390 
     59 N          33.1816    2.0693   -7.9069 N.am      10 UNK        -0.4204 
     60 CA         34.3557    1.2197   -7.6498 C.3       10 UNK         0.0237 
     61 CB         35.6148    1.8135   -8.3176 C.3       10 UNK        -0.1985 
     62 C          34.1213   -0.2633   -8.0212 C.2       10 UNK         0.4970 
     63 O          35.0485   -0.9373   -8.4731 O.2       10 UNK        -0.4914 
     64 N          32.8747   -0.7236   -7.8444 N.am      11 UNK        -0.4285 
     65 CA         32.3485   -2.0375   -8.2461 C.3       11 UNK         0.1007 
     66 C          32.1560   -2.2131   -9.7831 C.2       11 UNK         0.5703 
     67 N          32.2888   -1.1771  -10.6046 N.am      11 UNK        -0.7361 
     68 O          31.8405   -3.3078  -10.2429 O.2       11 UNK        -0.4986 
     69 C69        33.0717   -3.2544   -7.5923 C.3       12 UNK        -0.0947 
     70 S70        33.3086   -3.1059   -5.7896 S.3       12 UNK        -0.2240 
     71 C71        31.6318   -3.4263   -5.1625 C.3       12 UNK         0.0194 
     72 H72        26.7631   -8.7503    0.7199 H         1 UNK         0.0906 
     73 H73        28.3522   -8.4643    0.0078 H         1 UNK         0.0906 
     74 H74        28.2125   -8.8551    1.7226 H         1 UNK         0.0906 
     75 H75        28.7478   -6.2879   -0.3362 H         1 UNK         0.3140 
     76 H76        28.3503   -4.3053    1.6949 H         1 UNK         0.1085 
     77 H77        30.1774   -4.4349   -0.2042 H         1 UNK         0.0836 
     78 H78        29.0001   -3.6558   -1.2248 H         1 UNK         0.0836 
     79 H79        32.0378   -2.7400   -0.1891 H         1 UNK         0.0731 
     80 H80        31.8513   -1.0307    0.1051 H         1 UNK         0.0731 
     81 H81        31.8724   -3.5619   -2.4488 H         1 UNK         0.1312 
     82 H82        30.5514   -0.9672   -5.5974 H         1 UNK         0.1406 
     83 H83        30.3509    0.3404   -1.5177 H         1 UNK         0.1631 
     84 H84        29.9741    1.2974   -5.1286 H         1 UNK         0.0717 
     85 H85        30.3143    1.9789   -3.5539 H         1 UNK         0.0717 
     86 H86        26.7949    3.2408   -4.2025 H         1 UNK         0.0934 
     87 H87        28.4142    3.3225   -4.8459 H         1 UNK         0.0934 
     88 H88        27.7794    1.5898   -6.5805 H         1 UNK         0.0739 
     89 H89        25.5979    1.0728   -5.0375 H         1 UNK         0.3093 
     90 H90        23.4784    0.1516   -5.7859 H         1 UNK         0.0818 
     91 H91        22.6971    0.1475   -8.1564 H         1 UNK         0.0819 
     92 H92        23.7669   -1.1957   -8.5298 H         1 UNK         0.0819 
     93 H93        22.4294   -1.4154   -7.4019 H         1 UNK         0.0819 
     94 H94        24.9687   -2.2297   -6.6750 H         1 UNK         0.3041 
     95 H95        25.6652   -3.6917   -5.0883 H         1 UNK         0.0784 
     96 H96        27.6973   -2.3462   -5.7152 H         1 UNK         0.0793 
     97 H97        27.9060   -1.8732   -4.0364 H         1 UNK         0.0793 
     98 H98        28.0895   -3.5606   -4.5097 H         1 UNK         0.0793 
     99 H99        26.5802   -3.1160   -2.4112 H         1 UNK         0.3024 
    100 H100       24.3596   -3.2843   -0.5256 H         1 UNK         0.1171 
    101 H101       22.6965   -5.0564   -0.9664 H         1 UNK         0.0786 
    102 H102       23.9674   -6.2377   -1.2579 H         1 UNK         0.0786 
    103 H103       23.7390   -5.5578    0.3528 H         1 UNK         0.0786 
    104 H104       26.4419   -5.3843   -1.0274 H         1 UNK         0.2977 
    105 H105       24.8400    3.3415   -6.9673 H         1 UNK         0.3127 
    106 H106       25.8877    5.7287   -8.1898 H         1 UNK         0.0770 
    107 H107       23.1892    4.3077   -8.5426 H         1 UNK         0.0814 
    108 H108       23.5644    5.9365   -9.0865 H         1 UNK         0.0814 
    109 H109       23.5440    5.5770   -7.3686 H         1 UNK         0.0814 
    110 H110       25.3915    2.4230   -9.3105 H         1 UNK         0.2983 
    111 H111       26.2734    3.1380  -12.0856 H         1 UNK         0.0947 
    112 H112       25.3387    0.9072  -12.6981 H         1 UNK         0.0806 
    113 H113       24.0937    1.9459  -12.0228 H         1 UNK         0.0806 
    114 H114       24.7923    0.6581  -11.0442 H         1 UNK         0.0806 
    115 H115       26.6969    0.8684   -9.3358 H         1 UNK         0.3000 
    116 H116       29.1272   -0.3290  -10.4179 H         1 UNK         0.0850 
    117 H117       28.9891   -1.7281   -8.3944 H         1 UNK         0.0810 
    118 H118       27.4026   -1.6365   -9.1377 H         1 UNK         0.0810 
    119 H119       27.7607   -0.6847   -7.6978 H         1 UNK         0.0810 
    120 H120       29.7132    2.2635  -10.3847 H         1 UNK         0.3040 
    121 H121       30.9893    3.2831   -8.0208 H         1 UNK         0.0766 
    122 H122       30.2958    4.7561   -9.8955 H         1 UNK         0.0812 
    123 H123       31.4230    3.9496  -10.9869 H         1 UNK         0.0812 
    124 H124       32.0277    4.8955   -9.6330 H         1 UNK         0.0812 
    125 H125       32.7702    2.4991   -7.0892 H         1 UNK         0.3205 
    126 H126       34.5162    1.2352   -6.5707 H         1 UNK         0.0754 
    127 H127       36.5104    1.2644   -8.0243 H         1 UNK         0.0769 
    128 H128       35.7650    2.8532   -8.0270 H         1 UNK         0.0769 
    129 H129       35.5520    1.7753   -9.4057 H         1 UNK         0.0769 
    130 H130       32.1635   -0.0762   -7.5241 H         1 UNK         0.2981 
    131 H131       31.3305   -2.0386   -7.8592 H         1 UNK         0.0541 
    132 H132       32.5597   -0.2594  -10.2680 H         1 UNK         0.3459 
    133 H133       32.1517   -1.3212  -11.5919 H         1 UNK         0.3459 
    134 H134       34.0544   -3.3964   -8.0442 H         1 UNK         0.0612 
    135 H135       32.5197   -4.1761   -7.7846 H         1 UNK         0.0612 
    136 H136       30.9046   -3.4239   -5.9753 H         1 UNK         0.0624 
    137 H137       31.5983   -4.4254   -4.7256 H         1 UNK         0.0624 
@<TRIPOS>BOND
     1    1    2 1    
     2    1   72 1    
     3    1   73 1    
     4    1   74 1    
     5    2    3 2    
     6    2    4 am   BACKBONE|DICT|INTERRES
     7    4    5 1    
     8    4   75 1    
     9    5    6 1    
    10    5   35 1    
    11    5   76 1    
    12    6    7 1    
    13    6   77 1    
    14    6   78 1    
    15    7    8 1    
    16    8    9 1    
    17    8   79 1    
    18    8   80 1    
    19    9   10 ar   
    20    9   14 ar   
    21   10   11 ar   
    22   10   81 1    
    23   11   12 ar   
    24   11   71 1    
    25   12   13 ar   
    26   12   82 1    
    27   13   14 ar   
    28   13   15 1    
    29   14   83 1    
    30   15   16 1    
    31   15   84 1    
    32   15   85 1    
    33   16   17 1    
    34   17   18 1    
    35   17   86 1    
    36   17   87 1    
    37   18   19 1    
    38   18   37 1    
    39   18   88 1    
    40   19   20 am   BACKBONE|DICT|INTERRES
    41   19   89 1    
    42   20   21 2    
    43   20   22 1    
    44   22   23 1    
    45   22   24 1    
    46   22   90 1    
    47   23   91 1    
    48   23   92 1    
    49   23   93 1    
    50   24   25 am   BACKBONE|DICT|INTERRES
    51   24   94 1    
    52   25   26 2    
    53   25   27 1    
    54   27   28 1    
    55   27   29 1    
    56   27   95 1    
    57   28   96 1    
    58   28   97 1    
    59   28   98 1    
    60   29   30 am   BACKBONE|DICT|INTERRES
    61   29   99 1    
    62   30   31 2    
    63   30   32 1    
    64   32   33 1    
    65   32   34 1    
    66   32  100 1    
    67   33  101 1    
    68   33  102 1    
    69   33  103 1    
    70   34   35 am   BACKBONE|DICT|INTERRES
    71   34  104 1    
    72   35   36 2    
    73   37   38 2    
    74   37   39 am   BACKBONE|DICT|INTERRES
    75   39   40 1    
    76   39  105 1    
    77   40   41 1    
    78   40   42 1    
    79   40  106 1    
    80   41  107 1    
    81   41  108 1    
    82   41  109 1    
    83   42   43 2    
    84   42   44 am   BACKBONE|DICT|INTERRES
    85   44   45 1    
    86   44  110 1    
    87   45   46 1    
    88   45   47 1    
    89   45  111 1    
    90   46  112 1    
    91   46  113 1    
    92   46  114 1    
    93   47   48 2    
    94   47   49 am   BACKBONE|DICT|INTERRES
    95   49   50 1    
    96   49  115 1    
    97   50   51 1    
    98   50   52 1    
    99   50  116 1    
   100   51  117 1    
   101   51  118 1    
   102   51  119 1    
   103   52   53 2    
   104   52   54 am   BACKBONE|DICT|INTERRES
   105   54   55 1    
   106   54  120 1    
   107   55   56 1    
   108   55   57 1    
   109   55  121 1    
   110   56  122 1    
   111   56  123 1    
   112   56  124 1    
   113   57   58 2    
   114   57   59 am   BACKBONE|DICT|INTERRES
   115   59   60 1    
   116   59  125 1    
   117   60   61 1    
   118   60   62 1    
   119   60  126 1    
   120   61  127 1    
   121   61  128 1    
   122   61  129 1    
   123   62   63 2    
   124   62   64 am   BACKBONE|DICT|INTERRES
   125   64   65 1    
   126   64  130 1    
   127   65   66 1    
   128   65   69 1    
   129   65  131 1    
   130   66   67 am   BACKBONE|DICT|INTERRES
   131   66   68 2    
   132   67  132 1    
   133   67  133 1    
   134   69   70 1    
   135   69  134 1    
   136   69  135 1    
   137   70   71 1    
   138   71  136 1    
   139   71  137 1    
@<TRIPOS>SUBSTRUCTURE
     1 UNK         1 GROUP             0       ****    0 ROOT    
