@<TRIPOS>MOLECULE
3R137
137   139    1
SMALL
USER_CHARGES


@<TRIPOS>ATOM
      1 CA         29.1971   -6.7577   -0.1524 C.3       0 UNK        -0.2020 
      2 C          28.6294   -5.3999   -0.5356 C.2       0 UNK         0.4855 
      3 O          28.7109   -5.0165   -1.7025 O.2       0 UNK        -0.5197 
      4 N          28.0523   -4.6794    0.4375 N.am      1 UNK        -0.4892 
      5 CA         27.4524   -3.3340    0.3555 C.3       1 UNK         0.0835 
      6 C6         28.4191   -2.2305   -0.1461 C.3       12 UNK        -0.0855 
      7 S7         29.9277   -2.0680    0.8742 S.3       12 UNK        -0.2931 
      8 C8         31.2362   -2.6911   -0.2415 C.3       12 UNK         0.0378 
      9 C9         31.2365   -2.0119   -1.6073 C.ar      12 UNK        -0.0802 
     10 C10        31.2183   -2.7840   -2.7747 C.ar      12 UNK        -0.0944 
     11 C11        31.1677   -2.1704   -4.0301 C.ar      12 UNK        -0.0787 
     12 C12        31.1269   -0.7769   -4.1129 C.ar      12 UNK        -0.0862 
     13 C13        31.1347    0.0043   -2.9550 C.ar      12 UNK        -0.0733 
     14 C14        31.2162   -0.6168   -1.7067 C.ar      12 UNK        -0.0832 
     15 C15        31.0080    1.5165   -3.0518 C.3       12 UNK         0.0240 
     16 S16        29.4044    2.1168   -2.4142 S.3       12 UNK        -0.2522 
     17 C17        28.1755    1.0270   -3.2232 C.3       12 UNK        -0.0967 
     18 CA         28.1528    1.1078   -4.7704 C.3       5 UNK         0.0660 
     19 N          27.4575   -0.0472   -5.3487 N.am      5 UNK        -0.4015 
     20 C          27.4321   -0.3399   -6.6580 C.2       4 UNK         0.4946 
     21 O          28.0525    0.2971   -7.5074 O.2       4 UNK        -0.5353 
     22 CA         26.5227   -1.4906   -7.1247 C.3       4 UNK         0.0277 
     23 CB         27.3269   -2.7973   -7.2082 C.3       4 UNK        -0.1981 
     24 N          25.3409   -1.7003   -6.2842 N.am      4 UNK        -0.4209 
     25 C          24.4467   -0.7677   -5.9211 C.2       3 UNK         0.4942 
     26 O          24.4492    0.3840   -6.3570 O.2       3 UNK        -0.5208 
     27 CA         23.4225   -1.1525   -4.8366 C.3       3 UNK         0.0250 
     28 CB         22.0382   -1.3686   -5.4678 C.3       3 UNK        -0.1990 
     29 N          23.7802   -2.3317   -4.0337 N.am      3 UNK        -0.4232 
     30 C          24.9014   -2.4901   -3.3130 C.2       2 UNK         0.4993 
     31 O          25.8051   -1.6489   -3.2540 O.2       2 UNK        -0.5286 
     32 CA         25.0562   -3.8573   -2.6235 C.3       2 UNK         0.0209 
     33 CB         25.3301   -4.9586   -3.6636 C.3       2 UNK        -0.1931 
     34 N          26.1505   -3.8651   -1.6563 N.am      2 UNK        -0.4546 
     35 C          26.1350   -3.2941   -0.4484 C.2       1 UNK         0.5154 
     36 O          25.1373   -2.7615    0.0412 O.2       1 UNK        -0.5181 
     37 C          27.6041    2.4616   -5.2776 C.2       5 UNK         0.5014 
     38 O          28.3811    3.4046   -5.4309 O.2       5 UNK        -0.5248 
     39 N          26.2960    2.5314   -5.5596 N.am      6 UNK        -0.4434 
     40 CA         25.6501    3.7027   -6.1494 C.3       6 UNK         0.0363 
     41 CB         24.2294    3.8446   -5.5779 C.3       6 UNK        -0.1936 
     42 C          25.6073    3.6015   -7.6811 C.2       6 UNK         0.5081 
     43 O          25.8628    4.5965   -8.3594 O.2       6 UNK        -0.5248 
     44 N          25.2573    2.4153   -8.1981 N.am      7 UNK        -0.4718 
     45 CA         25.0028    2.1813   -9.6208 C.3       7 UNK         0.0273 
     46 CB         24.1905    0.8867   -9.7848 C.3       7 UNK        -0.1935 
     47 C          26.2656    2.1418  -10.4973 C.2       7 UNK         0.5018 
     48 O          26.1941    2.5710  -11.6500 O.2       7 UNK        -0.5186 
     49 N          27.3768    1.6164   -9.9640 N.am      8 UNK        -0.4240 
     50 CA         28.6321    1.4232  -10.6969 C.3       8 UNK         0.0235 
     51 CB         28.8768   -0.0826  -10.8996 C.3       8 UNK        -0.2000 
     52 C          29.8334    2.0641   -9.9910 C.2       8 UNK         0.4941 
     53 O          30.7411    2.5368  -10.6761 O.2       8 UNK        -0.5273 
     54 N          29.8572    2.0275   -8.6501 N.am      9 UNK        -0.4262 
     55 CA         30.9079    2.4899   -7.7276 C.3       9 UNK         0.0264 
     56 CB         31.1877    3.9972   -7.8789 C.3       9 UNK        -0.1955 
     57 C          32.2047    1.6626   -7.7904 C.2       9 UNK         0.5031 
     58 O          32.7283    1.2839   -6.7437 O.2       9 UNK        -0.5390 
     59 N          32.6673    1.3525   -9.0070 N.am      10 UNK        -0.4204 
     60 CA         33.7917    0.4611   -9.3091 C.3       10 UNK         0.0237 
     61 CB         34.3639    0.8487  -10.6841 C.3       10 UNK        -0.1985 
     62 C          33.4177   -1.0369   -9.2695 C.2       10 UNK         0.4970 
     63 O          34.2698   -1.8719   -9.5745 O.2       10 UNK        -0.4914 
     64 N          32.1620   -1.3480   -8.9188 N.am      11 UNK        -0.4285 
     65 CA         31.5709   -2.6940   -8.8007 C.3       11 UNK         0.1007 
     66 C          31.2817   -3.4059  -10.1564 C.2       11 UNK         0.5703 
     67 N          31.4481   -2.7546  -11.3014 N.am      11 UNK        -0.7361 
     68 O          30.8626   -4.5608  -10.1712 O.2       11 UNK        -0.4986 
     69 C69        32.3025   -3.6329   -7.7922 C.3       12 UNK        -0.0947 
     70 S70        32.7136   -2.8498   -6.1973 S.3       12 UNK        -0.2240 
     71 C71        31.1388   -2.9986   -5.3043 C.3       12 UNK         0.0194 
     72 H72        30.2617   -6.7953   -0.3818 H         1 UNK         0.0906 
     73 H73        28.6989   -7.5449   -0.7174 H         1 UNK         0.0906 
     74 H74        29.0717   -6.9697    0.9093 H         1 UNK         0.0906 
     75 H75        28.0096   -5.0865    1.3620 H         1 UNK         0.3140 
     76 H76        27.1816   -3.0786    1.3816 H         1 UNK         0.1085 
     77 H77        28.6790   -2.4014   -1.1912 H         1 UNK         0.0836 
     78 H78        27.9203   -1.2592   -0.1298 H         1 UNK         0.0836 
     79 H79        32.2067   -2.5340    0.2307 H         1 UNK         0.0731 
     80 H80        31.1181   -3.7700   -0.3479 H         1 UNK         0.0731 
     81 H81        31.2263   -3.8635   -2.7062 H         1 UNK         0.1312 
     82 H82        31.0836   -0.3052   -5.0852 H         1 UNK         0.1406 
     83 H83        31.2123   -0.0135   -0.8088 H         1 UNK         0.1631 
     84 H84        31.1357    1.8543   -4.0816 H         1 UNK         0.0717 
     85 H85        31.8116    1.9827   -2.4804 H         1 UNK         0.0717 
     86 H86        28.3839    0.0038   -2.9047 H         1 UNK         0.0934 
     87 H87        27.1892    1.2549   -2.8141 H         1 UNK         0.0934 
     88 H88        29.1779    1.0433   -5.1323 H         1 UNK         0.0739 
     89 H89        26.9169   -0.6193   -4.7067 H         1 UNK         0.3093 
     90 H90        26.1722   -1.2417   -8.1268 H         1 UNK         0.0818 
     91 H91        28.1931   -2.6802   -7.8603 H         1 UNK         0.0819 
     92 H92        27.6931   -3.1112   -6.2296 H         1 UNK         0.0819 
     93 H93        26.7259   -3.6089   -7.6187 H         1 UNK         0.0819 
     94 H94        25.2458   -2.6149   -5.8694 H         1 UNK         0.3041 
     95 H95        23.3578   -0.3045   -4.1519 H         1 UNK         0.0784 
     96 H96        21.7326   -0.4966   -6.0484 H         1 UNK         0.0793 
     97 H97        22.0305   -2.2267   -6.1412 H         1 UNK         0.0793 
     98 H98        21.2743   -1.5301   -4.7069 H         1 UNK         0.0793 
     99 H99        23.1052   -3.0835   -4.0357 H         1 UNK         0.3024 
    100 H100       24.1266   -4.0831   -2.0957 H         1 UNK         0.1171 
    101 H101       26.2457   -4.7640   -4.2242 H         1 UNK         0.0786 
    102 H102       25.4349   -5.9335   -3.1869 H         1 UNK         0.0786 
    103 H103       24.5156   -5.0428   -4.3840 H         1 UNK         0.0786 
    104 H104       27.0361   -4.2668   -1.9570 H         1 UNK         0.2977 
    105 H105       25.7263    1.6958   -5.4857 H         1 UNK         0.3127 
    106 H106       26.2049    4.6066   -5.8877 H         1 UNK         0.0770 
    107 H107       23.7272    4.7177   -5.9967 H         1 UNK         0.0814 
    108 H108       23.6104    2.9746   -5.8010 H         1 UNK         0.0814 
    109 H109       24.2500    3.9714   -4.4955 H         1 UNK         0.0814 
    110 H110       25.0216    1.6572   -7.5610 H         1 UNK         0.2983 
    111 H111       24.3865    3.0061   -9.9864 H         1 UNK         0.0947 
    112 H112       24.7427    0.0146   -9.4373 H         1 UNK         0.0806 
    113 H113       23.9367    0.7152  -10.8318 H         1 UNK         0.0806 
    114 H114       23.2543    0.9324   -9.2280 H         1 UNK         0.0806 
    115 H115       27.3556    1.2839   -9.0049 H         1 UNK         0.3000 
    116 H116       28.5718    1.8879  -11.6834 H         1 UNK         0.0850 
    117 H117       29.8001   -0.2573  -11.4530 H         1 UNK         0.0810 
    118 H118       28.0684   -0.5394  -11.4706 H         1 UNK         0.0810 
    119 H119       28.9559   -0.6151   -9.9511 H         1 UNK         0.0810 
    120 H120       29.1079    1.5068   -8.1940 H         1 UNK         0.3040 
    121 H121       30.5005    2.3394   -6.7278 H         1 UNK         0.0766 
    122 H122       31.8923    4.3376   -7.1192 H         1 UNK         0.0812 
    123 H123       30.2742    4.5794   -7.7562 H         1 UNK         0.0812 
    124 H124       31.6163    4.2431   -8.8506 H         1 UNK         0.0812 
    125 H125       32.1540    1.7377   -9.7989 H         1 UNK         0.3205 
    126 H126       34.5698    0.6153   -8.5586 H         1 UNK         0.0754 
    127 H127       35.2403    0.2479  -10.9313 H         1 UNK         0.0769 
    128 H128       34.6767    1.8930  -10.7022 H         1 UNK         0.0769 
    129 H129       33.6326    0.7044  -11.4805 H         1 UNK         0.0769 
    130 H130       31.5437   -0.5858   -8.6907 H         1 UNK         0.2981 
    131 H131       30.5798   -2.5087   -8.3876 H         1 UNK         0.0541 
    132 H132       31.2450   -3.2260  -12.1685 H         1 UNK         0.3459 
    133 H133       31.8064   -1.8146  -11.3088 H         1 UNK         0.3459 
    134 H134       33.2352   -3.9961   -8.2265 H         1 UNK         0.0612 
    135 H135       31.7012   -4.5215   -7.5916 H         1 UNK         0.0612 
    136 H136       30.9428   -4.0494   -5.0856 H         1 UNK         0.0624 
    137 H137       30.3223   -2.6506   -5.9382 H         1 UNK         0.0624 
@<TRIPOS>BOND
     1    1    2 1    
     2    1   72 1    
     3    1   73 1    
     4    1   74 1    
     5    2    3 2    
     6    2    4 am   BACKBONE|DICT|INTERRES
     7    4    5 1    
     8    4   75 1    
     9    5    6 1    
    10    5   35 1    
    11    5   76 1    
    12    6    7 1    
    13    6   77 1    
    14    6   78 1    
    15    7    8 1    
    16    8    9 1    
    17    8   79 1    
    18    8   80 1    
    19    9   10 ar   
    20    9   14 ar   
    21   10   11 ar   
    22   10   81 1    
    23   11   12 ar   
    24   11   71 1    
    25   12   13 ar   
    26   12   82 1    
    27   13   14 ar   
    28   13   15 1    
    29   14   83 1    
    30   15   16 1    
    31   15   84 1    
    32   15   85 1    
    33   16   17 1    
    34   17   18 1    
    35   17   86 1    
    36   17   87 1    
    37   18   19 1    
    38   18   37 1    
    39   18   88 1    
    40   19   20 am   BACKBONE|DICT|INTERRES
    41   19   89 1    
    42   20   21 2    
    43   20   22 1    
    44   22   23 1    
    45   22   24 1    
    46   22   90 1    
    47   23   91 1    
    48   23   92 1    
    49   23   93 1    
    50   24   25 am   BACKBONE|DICT|INTERRES
    51   24   94 1    
    52   25   26 2    
    53   25   27 1    
    54   27   28 1    
    55   27   29 1    
    56   27   95 1    
    57   28   96 1    
    58   28   97 1    
    59   28   98 1    
    60   29   30 am   BACKBONE|DICT|INTERRES
    61   29   99 1    
    62   30   31 2    
    63   30   32 1    
    64   32   33 1    
    65   32   34 1    
    66   32  100 1    
    67   33  101 1    
    68   33  102 1    
    69   33  103 1    
    70   34   35 am   BACKBONE|DICT|INTERRES
    71   34  104 1    
    72   35   36 2    
    73   37   38 2    
    74   37   39 am   BACKBONE|DICT|INTERRES
    75   39   40 1    
    76   39  105 1    
    77   40   41 1    
    78   40   42 1    
    79   40  106 1    
    80   41  107 1    
    81   41  108 1    
    82   41  109 1    
    83   42   43 2    
    84   42   44 am   BACKBONE|DICT|INTERRES
    85   44   45 1    
    86   44  110 1    
    87   45   46 1    
    88   45   47 1    
    89   45  111 1    
    90   46  112 1    
    91   46  113 1    
    92   46  114 1    
    93   47   48 2    
    94   47   49 am   BACKBONE|DICT|INTERRES
    95   49   50 1    
    96   49  115 1    
    97   50   51 1    
    98   50   52 1    
    99   50  116 1    
   100   51  117 1    
   101   51  118 1    
   102   51  119 1    
   103   52   53 2    
   104   52   54 am   BACKBONE|DICT|INTERRES
   105   54   55 1    
   106   54  120 1    
   107   55   56 1    
   108   55   57 1    
   109   55  121 1    
   110   56  122 1    
   111   56  123 1    
   112   56  124 1    
   113   57   58 2    
   114   57   59 am   BACKBONE|DICT|INTERRES
   115   59   60 1    
   116   59  125 1    
   117   60   61 1    
   118   60   62 1    
   119   60  126 1    
   120   61  127 1    
   121   61  128 1    
   122   61  129 1    
   123   62   63 2    
   124   62   64 am   BACKBONE|DICT|INTERRES
   125   64   65 1    
   126   64  130 1    
   127   65   66 1    
   128   65   69 1    
   129   65  131 1    
   130   66   67 am   BACKBONE|DICT|INTERRES
   131   66   68 2    
   132   67  132 1    
   133   67  133 1    
   134   69   70 1    
   135   69  134 1    
   136   69  135 1    
   137   70   71 1    
   138   71  136 1    
   139   71  137 1    
@<TRIPOS>SUBSTRUCTURE
     1 UNK         1 GROUP             0       ****    0 ROOT    
