@<TRIPOS>MOLECULE
3R137
137   139    1
SMALL
USER_CHARGES


@<TRIPOS>ATOM
      1 CA         24.9811   -6.6496   -3.5159 C.3       0 UNK        -0.2020 
      2 C          25.3937   -5.2131   -3.2356 C.2       0 UNK         0.4855 
      3 O          25.3134   -4.3745   -4.1324 O.2       0 UNK        -0.5197 
      4 N          25.8532   -4.9329   -2.0072 N.am      1 UNK        -0.4892 
      5 CA         26.2498   -3.6155   -1.4851 C.3       1 UNK         0.0835 
      6 C6         27.2442   -2.8584   -2.4149 C.3       12 UNK        -0.0855 
      7 S7         28.5598   -1.9672   -1.5214 S.3       12 UNK        -0.2931 
      8 C8         29.9780   -3.1153   -1.6462 C.3       12 UNK         0.0378 
      9 C9         30.5367   -3.2335   -3.0623 C.ar      12 UNK        -0.0802 
     10 C10        31.5351   -2.3629   -3.5141 C.ar      12 UNK        -0.0944 
     11 C11        32.0610   -2.4883   -4.8070 C.ar      12 UNK        -0.0787 
     12 C12        31.5551   -3.4776   -5.6592 C.ar      12 UNK        -0.0862 
     13 C13        30.5672   -4.3620   -5.2157 C.ar      12 UNK        -0.0733 
     14 C14        30.0867   -4.2502   -3.9092 C.ar      12 UNK        -0.0832 
     15 C15        30.0472   -5.4720   -6.1228 C.3       12 UNK         0.0240 
     16 S16        28.8573   -4.8873   -7.3768 S.3       12 UNK        -0.2522 
     17 C17        27.4907   -4.1997   -6.3706 C.3       12 UNK        -0.0967 
     18 CA         26.9934   -2.8036   -6.8295 C.3       5 UNK         0.0660 
     19 N          25.8317   -2.3460   -6.0539 N.am      5 UNK        -0.4015 
     20 C          25.0665   -1.3027   -6.4117 C.2       4 UNK         0.4946 
     21 O          25.2252   -0.6763   -7.4619 O.2       4 UNK        -0.5353 
     22 CA         23.9653   -0.8543   -5.4321 C.3       4 UNK         0.0277 
     23 CB         22.9559   -1.9743   -5.1309 C.3       4 UNK        -0.1981 
     24 N          24.4719   -0.2725   -4.1802 N.am      4 UNK        -0.4209 
     25 C          25.2438    0.8240   -4.1055 C.2       3 UNK         0.4942 
     26 O          25.7167    1.3818   -5.0937 O.2       3 UNK        -0.5208 
     27 CA         25.5799    1.4235   -2.7256 C.3       3 UNK         0.0250 
     28 CB         24.9473    2.8200   -2.5530 C.3       3 UNK        -0.1990 
     29 N          25.3198    0.5569   -1.5716 N.am      3 UNK        -0.4232 
     30 C          24.1521    0.2279   -0.9995 C.2       2 UNK         0.4993 
     31 O          23.0502    0.6159   -1.3888 O.2       2 UNK        -0.5286 
     32 CA         24.2678   -0.7565    0.1830 C.3       2 UNK         0.0209 
     33 CB         22.9022   -1.2709    0.6894 C.3       2 UNK        -0.1931 
     34 N          25.1776   -1.8675   -0.1432 N.am      2 UNK        -0.4546 
     35 C          25.0264   -2.7347   -1.1560 C.2       1 UNK         0.5154 
     36 O          24.0100   -2.7936   -1.8504 O.2       1 UNK        -0.5181 
     37 C          28.1172   -1.7447   -6.8614 C.2       5 UNK         0.5014 
     38 O          28.7895   -1.6234   -7.8844 O.2       5 UNK        -0.5248 
     39 N          28.2784   -0.9628   -5.7830 N.am      6 UNK        -0.4434 
     40 CA         29.3024    0.0795   -5.6907 C.3       6 UNK         0.0363 
     41 CB         29.3533    0.6637   -4.2738 C.3       6 UNK        -0.1936 
     42 C          29.1486    1.1970   -6.7335 C.2       6 UNK         0.5081 
     43 O          30.1525    1.6325   -7.2976 O.2       6 UNK        -0.5248 
     44 N          27.9038    1.6144   -7.0024 N.am      7 UNK        -0.4718 
     45 CA         27.5674    2.5732   -8.0562 C.3       7 UNK         0.0273 
     46 CB         26.1176    3.0490   -7.8761 C.3       7 UNK        -0.1935 
     47 C          27.7765    2.0024   -9.4683 C.2       7 UNK         0.5018 
     48 O          28.1965    2.7446  -10.3560 O.2       7 UNK        -0.5186 
     49 N          27.5016    0.7020   -9.6492 N.am      8 UNK        -0.4240 
     50 CA         27.7226   -0.0220  -10.9045 C.3       8 UNK         0.0235 
     51 CB         26.9726   -1.3640  -10.8741 C.3       8 UNK        -0.2000 
     52 C          29.2182   -0.2287  -11.2001 C.2       8 UNK         0.4941 
     53 O          29.6471   -0.0139  -12.3344 O.2       8 UNK        -0.5273 
     54 N          29.9854   -0.6155  -10.1715 N.am      9 UNK        -0.4262 
     55 CA         31.4431   -0.7586  -10.2110 C.3       9 UNK         0.0264 
     56 CB         31.9009   -1.5393   -8.9676 C.3       9 UNK        -0.1955 
     57 C          32.1843    0.5880  -10.2924 C.2       9 UNK         0.5031 
     58 O          33.3175    0.6182  -10.7742 O.2       9 UNK        -0.5390 
     59 N          31.5396    1.6586   -9.8059 N.am      10 UNK        -0.4204 
     60 CA         32.0378    3.0299   -9.6644 C.3       10 UNK         0.0237 
     61 CB         32.3504    3.6594  -11.0390 C.3       10 UNK        -0.1985 
     62 C          33.2035    3.1331   -8.6614 C.2       10 UNK         0.4970 
     63 O          34.1192    3.9323   -8.8666 O.2       10 UNK        -0.4914 
     64 N          33.1458    2.3270   -7.5923 N.am      11 UNK        -0.4285 
     65 CA         34.1354    2.3144   -6.5028 C.3       11 UNK         0.1007 
     66 C          33.8872    3.3855   -5.4005 C.2       11 UNK         0.5703 
     67 N          32.7614    4.0909   -5.3994 N.am      11 UNK        -0.7361 
     68 O          34.7424    3.5946   -4.5431 O.2       11 UNK        -0.4986 
     69 C69        34.3395    0.8901   -5.9200 C.3       12 UNK        -0.0947 
     70 S70        32.8382    0.1720   -5.1768 S.3       12 UNK        -0.2240 
     71 C71        33.2173   -1.6048   -5.2678 C.3       12 UNK         0.0194 
     72 H72        25.5687   -7.0527   -4.3403 H         1 UNK         0.0906 
     73 H73        25.1245   -7.2941   -2.6490 H         1 UNK         0.0906 
     74 H74        23.9291   -6.6866   -3.7973 H         1 UNK         0.0906 
     75 H75        25.8700   -5.6764   -1.3224 H         1 UNK         0.3140 
     76 H76        26.7523   -3.8380   -0.5420 H         1 UNK         0.1085 
     77 H77        27.7130   -3.5561   -3.0981 H         1 UNK         0.0836 
     78 H78        26.7275   -2.1510   -3.0663 H         1 UNK         0.0836 
     79 H79        30.7646   -2.7675   -0.9750 H         1 UNK         0.0731 
     80 H80        29.6794   -4.0963   -1.2732 H         1 UNK         0.0731 
     81 H81        31.9156   -1.5950   -2.8545 H         1 UNK         0.1312 
     82 H82        31.9475   -3.5815   -6.6613 H         1 UNK         0.1406 
     83 H83        29.3527   -4.9596   -3.5525 H         1 UNK         0.1631 
     84 H84        29.5780   -6.2620   -5.5344 H         1 UNK         0.0717 
     85 H85        30.8893   -5.9396   -6.6349 H         1 UNK         0.0717 
     86 H86        26.6659   -4.9120   -6.4217 H         1 UNK         0.0934 
     87 H87        27.7808   -4.1653   -5.3236 H         1 UNK         0.0934 
     88 H88        26.6514   -2.9162   -7.8606 H         1 UNK         0.0739 
     89 H89        25.5944   -2.8907   -5.2258 H         1 UNK         0.3093 
     90 H90        23.4129   -0.0607   -5.9401 H         1 UNK         0.0818 
     91 H91        22.0749   -1.5814   -4.6232 H         1 UNK         0.0819 
     92 H92        22.6127   -2.4532   -6.0489 H         1 UNK         0.0819 
     93 H93        23.3792   -2.7499   -4.4951 H         1 UNK         0.0819 
     94 H94        24.1214   -0.6738   -3.3202 H         1 UNK         0.3041 
     95 H95        26.6588    1.5709   -2.7177 H         1 UNK         0.0784 
     96 H96        25.2884    3.4992   -3.3356 H         1 UNK         0.0793 
     97 H97        23.8592    2.7867   -2.6119 H         1 UNK         0.0793 
     98 H98        25.2204    3.2663   -1.5969 H         1 UNK         0.0793 
     99 H99        26.1498    0.1405   -1.1714 H         1 UNK         0.3024 
    100 H100       24.7290   -0.1980    0.9997 H         1 UNK         0.1171 
    101 H101       22.3400   -1.7828   -0.0920 H         1 UNK         0.0786 
    102 H102       22.2833   -0.4446    1.0413 H         1 UNK         0.0786 
    103 H103       23.0234   -1.9623    1.5231 H         1 UNK         0.0786 
    104 H104       26.0468   -1.8861    0.3743 H         1 UNK         0.2977 
    105 H105       27.6765   -1.0945   -4.9860 H         1 UNK         0.3127 
    106 H106       30.2498   -0.4172   -5.8935 H         1 UNK         0.0770 
    107 H107       29.5584   -0.1072   -3.5332 H         1 UNK         0.0814 
    108 H108       28.4212    1.1581   -4.0117 H         1 UNK         0.0814 
    109 H109       30.1476    1.4068   -4.1903 H         1 UNK         0.0814 
    110 H110       27.1282    1.2554   -6.4507 H         1 UNK         0.2983 
    111 H111       28.2265    3.4377   -7.9495 H         1 UNK         0.0947 
    112 H112       25.8400    3.7655   -8.6504 H         1 UNK         0.0806 
    113 H113       25.9804    3.5417   -6.9133 H         1 UNK         0.0806 
    114 H114       25.4124    2.2181   -7.9276 H         1 UNK         0.0806 
    115 H115       27.1614    0.1676   -8.8597 H         1 UNK         0.3000 
    116 H116       27.3040    0.5783  -11.7153 H         1 UNK         0.0850 
    117 H117       27.0666   -1.8818  -11.8294 H         1 UNK         0.0810 
    118 H118       25.9085   -1.2201  -10.6855 H         1 UNK         0.0810 
    119 H119       27.3610   -2.0315  -10.1050 H         1 UNK         0.0810 
    120 H120       29.5303   -0.8549   -9.2888 H         1 UNK         0.3040 
    121 H121       31.7052   -1.3370  -11.0993 H         1 UNK         0.0766 
    122 H122       32.9813   -1.6890   -8.9725 H         1 UNK         0.0812 
    123 H123       31.4346   -2.5239   -8.9256 H         1 UNK         0.0812 
    124 H124       31.6468   -1.0124   -8.0465 H         1 UNK         0.0812 
    125 H125       30.6511    1.4876   -9.3489 H         1 UNK         0.3205 
    126 H126       31.2162    3.5983   -9.2259 H         1 UNK         0.0754 
    127 H127       32.5746    4.7221  -10.9400 H         1 UNK         0.0769 
    128 H128       31.5006    3.5700  -11.7160 H         1 UNK         0.0769 
    129 H129       33.2111    3.1894  -11.5157 H         1 UNK         0.0769 
    130 H130       32.3218    1.7529   -7.4568 H         1 UNK         0.2981 
    131 H131       35.0979    2.5902   -6.9377 H         1 UNK         0.0541 
    132 H132       32.6155    4.7873   -4.6861 H         1 UNK         0.3459 
    133 H133       32.0502    3.9155   -6.0906 H         1 UNK         0.3459 
    134 H134       35.1315    0.8900   -5.1691 H         1 UNK         0.0612 
    135 H135       34.6851    0.2281   -6.7155 H         1 UNK         0.0612 
    136 H136       33.4991   -1.8509   -6.2925 H         1 UNK         0.0624 
    137 H137       34.0902   -1.8125   -4.6476 H         1 UNK         0.0624 
@<TRIPOS>BOND
     1    1    2 1    
     2    1   72 1    
     3    1   73 1    
     4    1   74 1    
     5    2    3 2    
     6    2    4 am   BACKBONE|DICT|INTERRES
     7    4    5 1    
     8    4   75 1    
     9    5    6 1    
    10    5   35 1    
    11    5   76 1    
    12    6    7 1    
    13    6   77 1    
    14    6   78 1    
    15    7    8 1    
    16    8    9 1    
    17    8   79 1    
    18    8   80 1    
    19    9   10 ar   
    20    9   14 ar   
    21   10   11 ar   
    22   10   81 1    
    23   11   12 ar   
    24   11   71 1    
    25   12   13 ar   
    26   12   82 1    
    27   13   14 ar   
    28   13   15 1    
    29   14   83 1    
    30   15   16 1    
    31   15   84 1    
    32   15   85 1    
    33   16   17 1    
    34   17   18 1    
    35   17   86 1    
    36   17   87 1    
    37   18   19 1    
    38   18   37 1    
    39   18   88 1    
    40   19   20 am   BACKBONE|DICT|INTERRES
    41   19   89 1    
    42   20   21 2    
    43   20   22 1    
    44   22   23 1    
    45   22   24 1    
    46   22   90 1    
    47   23   91 1    
    48   23   92 1    
    49   23   93 1    
    50   24   25 am   BACKBONE|DICT|INTERRES
    51   24   94 1    
    52   25   26 2    
    53   25   27 1    
    54   27   28 1    
    55   27   29 1    
    56   27   95 1    
    57   28   96 1    
    58   28   97 1    
    59   28   98 1    
    60   29   30 am   BACKBONE|DICT|INTERRES
    61   29   99 1    
    62   30   31 2    
    63   30   32 1    
    64   32   33 1    
    65   32   34 1    
    66   32  100 1    
    67   33  101 1    
    68   33  102 1    
    69   33  103 1    
    70   34   35 am   BACKBONE|DICT|INTERRES
    71   34  104 1    
    72   35   36 2    
    73   37   38 2    
    74   37   39 am   BACKBONE|DICT|INTERRES
    75   39   40 1    
    76   39  105 1    
    77   40   41 1    
    78   40   42 1    
    79   40  106 1    
    80   41  107 1    
    81   41  108 1    
    82   41  109 1    
    83   42   43 2    
    84   42   44 am   BACKBONE|DICT|INTERRES
    85   44   45 1    
    86   44  110 1    
    87   45   46 1    
    88   45   47 1    
    89   45  111 1    
    90   46  112 1    
    91   46  113 1    
    92   46  114 1    
    93   47   48 2    
    94   47   49 am   BACKBONE|DICT|INTERRES
    95   49   50 1    
    96   49  115 1    
    97   50   51 1    
    98   50   52 1    
    99   50  116 1    
   100   51  117 1    
   101   51  118 1    
   102   51  119 1    
   103   52   53 2    
   104   52   54 am   BACKBONE|DICT|INTERRES
   105   54   55 1    
   106   54  120 1    
   107   55   56 1    
   108   55   57 1    
   109   55  121 1    
   110   56  122 1    
   111   56  123 1    
   112   56  124 1    
   113   57   58 2    
   114   57   59 am   BACKBONE|DICT|INTERRES
   115   59   60 1    
   116   59  125 1    
   117   60   61 1    
   118   60   62 1    
   119   60  126 1    
   120   61  127 1    
   121   61  128 1    
   122   61  129 1    
   123   62   63 2    
   124   62   64 am   BACKBONE|DICT|INTERRES
   125   64   65 1    
   126   64  130 1    
   127   65   66 1    
   128   65   69 1    
   129   65  131 1    
   130   66   67 am   BACKBONE|DICT|INTERRES
   131   66   68 2    
   132   67  132 1    
   133   67  133 1    
   134   69   70 1    
   135   69  134 1    
   136   69  135 1    
   137   70   71 1    
   138   71  136 1    
   139   71  137 1    
@<TRIPOS>SUBSTRUCTURE
     1 UNK         1 GROUP             0       ****    0 ROOT    
