@<TRIPOS>MOLECULE
3R137
137   139    1
SMALL
USER_CHARGES


@<TRIPOS>ATOM
      1 CA         25.1037   -0.1485    0.7799 C.3       0 UNK        -0.2020 
      2 C          26.3691    0.0529   -0.0401 C.2       0 UNK         0.4855 
      3 O          26.4784    1.0402   -0.7681 O.2       0 UNK        -0.5197 
      4 N          27.3309   -0.8716    0.0714 N.am      1 UNK        -0.4892 
      5 CA         28.5611   -0.8909   -0.7253 C.3       1 UNK         0.0835 
      6 C6         29.6561   -1.8042   -0.1079 C.3       12 UNK        -0.0855 
      7 S7         29.0786   -3.4568    0.4255 S.3       12 UNK        -0.2931 
      8 C8         30.2859   -4.5688   -0.3741 C.3       12 UNK         0.0378 
      9 C9         30.1764   -4.5592   -1.8930 C.ar      12 UNK        -0.0802 
     10 C10        31.3001   -4.3060   -2.6839 C.ar      12 UNK        -0.0944 
     11 C11        31.1916   -4.2675   -4.0774 C.ar      12 UNK        -0.0787 
     12 C12        29.9491   -4.4879   -4.6801 C.ar      12 UNK        -0.0862 
     13 C13        28.8180   -4.7545   -3.9000 C.ar      12 UNK        -0.0733 
     14 C14        28.9468   -4.8006   -2.5099 C.ar      12 UNK        -0.0832 
     15 C15        27.4276   -4.9214   -4.5022 C.3       12 UNK         0.0240 
     16 S16        27.3695   -5.7750   -6.1123 S.3       12 UNK        -0.2522 
     17 C17        27.3838   -4.3789   -7.2870 C.3       12 UNK        -0.0967 
     18 CA         25.9536   -3.8810   -7.6252 C.3       5 UNK         0.0660 
     19 N          25.3604   -3.1403   -6.5049 N.am      5 UNK        -0.4015 
     20 C          24.2386   -3.4828   -5.8549 C.2       4 UNK         0.4946 
     21 O          23.5089   -4.4137   -6.2002 O.2       4 UNK        -0.5353 
     22 CA         23.8625   -2.6889   -4.5849 C.3       4 UNK         0.0277 
     23 CB         24.0177   -3.5576   -3.3243 C.3       4 UNK        -0.1981 
     24 N          24.6460   -1.4650   -4.4070 N.am      4 UNK        -0.4209 
     25 C          24.3595   -0.2952   -4.9952 C.2       3 UNK         0.4942 
     26 O          23.3429   -0.1035   -5.6629 O.2       3 UNK        -0.5208 
     27 CA         25.3695    0.8567   -4.8192 C.3       3 UNK         0.0250 
     28 CB         24.8528    1.8683   -3.7842 C.3       3 UNK        -0.1990 
     29 N          26.7270    0.4386   -4.4472 N.am      3 UNK        -0.4232 
     30 C          27.5186   -0.3868   -5.1499 C.2       2 UNK         0.4993 
     31 O          27.1846   -0.9162   -6.2096 O.2       2 UNK        -0.5286 
     32 CA         28.9073   -0.7062   -4.5701 C.3       2 UNK         0.0209 
     33 CB         29.9619    0.1909   -5.2400 C.3       2 UNK        -0.1931 
     34 N          29.0172   -0.5753   -3.1113 N.am      2 UNK        -0.4546 
     35 C          28.2588   -1.2131   -2.2057 C.2       1 UNK         0.5154 
     36 O          27.3362   -1.9792   -2.5023 O.2       1 UNK        -0.5181 
     37 C          25.9775   -3.0213   -8.9015 C.2       5 UNK         0.5014 
     38 O          25.6954   -3.5431   -9.9821 O.2       5 UNK        -0.5248 
     39 N          26.3210   -1.7362   -8.7685 N.am      6 UNK        -0.4434 
     40 CA         26.4176   -0.7584   -9.8499 C.3       6 UNK         0.0363 
     41 CB         27.9002   -0.6066  -10.2441 C.3       6 UNK        -0.1936 
     42 C          25.8212    0.5709   -9.3691 C.2       6 UNK         0.5081 
     43 O          25.3449    0.6583   -8.2368 O.2       6 UNK        -0.5248 
     44 N          25.8945    1.6153  -10.2036 N.am      7 UNK        -0.4718 
     45 CA         25.4629    2.9845   -9.8834 C.3       7 UNK         0.0273 
     46 CB         25.2398    3.7534  -11.1996 C.3       7 UNK        -0.1935 
     47 C          26.4389    3.7118   -8.9287 C.2       7 UNK         0.5018 
     48 O          26.8771    4.8242   -9.2258 O.2       7 UNK        -0.5186 
     49 N          26.7862    3.0441   -7.8174 N.am      8 UNK        -0.4240 
     50 CA         27.7488    3.4349   -6.7782 C.3       8 UNK         0.0235 
     51 CB         27.2143    4.6325   -5.9662 C.3       8 UNK        -0.2000 
     52 C          29.1764    3.6677   -7.3166 C.2       8 UNK         0.4941 
     53 O          29.9235    4.4694   -6.7547 O.2       8 UNK        -0.5273 
     54 N          29.5454    2.9490   -8.3867 N.am      9 UNK        -0.4262 
     55 CA         30.7649    3.1264   -9.1866 C.3       9 UNK         0.0264 
     56 CB         30.5402    2.4658  -10.5608 C.3       9 UNK        -0.1955 
     57 C          32.0739    2.6465   -8.5188 C.2       9 UNK         0.5031 
     58 O          32.9773    2.1881   -9.2212 O.2       9 UNK        -0.5390 
     59 N          32.1568    2.7425   -7.1835 N.am      10 UNK        -0.4204 
     60 CA         33.3131    2.4513   -6.3197 C.3       10 UNK         0.0237 
     61 CB         34.3482    3.5895   -6.4439 C.3       10 UNK        -0.1985 
     62 C          33.9524    1.0583   -6.5207 C.2       10 UNK         0.4970 
     63 O          35.1546    0.9053   -6.2962 O.2       10 UNK        -0.4914 
     64 N          33.1437    0.0798   -6.9517 N.am      11 UNK        -0.4285 
     65 CA         33.5532   -1.2834   -7.3359 C.3       11 UNK         0.1007 
     66 C          34.4513   -1.3470   -8.6113 C.2       11 UNK         0.5703 
     67 N          34.4954   -0.3141   -9.4460 N.am      11 UNK        -0.7361 
     68 O          35.0942   -2.3613   -8.8731 O.2       11 UNK        -0.4986 
     69 C69        34.1232   -2.1124   -6.1467 C.3       12 UNK        -0.0947 
     70 S70        32.9347   -2.2453   -4.7703 S.3       12 UNK        -0.2240 
     71 C71        32.4155   -3.9792   -4.9311 C.3       12 UNK         0.0194 
     72 H72        25.1506   -1.0529    1.3864 H         1 UNK         0.0906 
     73 H73        24.9491    0.7000    1.4462 H         1 UNK         0.0906 
     74 H74        24.2398   -0.2266    0.1203 H         1 UNK         0.0906 
     75 H75        27.1874   -1.6883    0.6496 H         1 UNK         0.3140 
     76 H76        28.9574    0.1274   -0.7036 H         1 UNK         0.1085 
     77 H77        30.0625   -1.3138    0.7781 H         1 UNK         0.0836 
     78 H78        30.5030   -1.9044   -0.7897 H         1 UNK         0.0836 
     79 H79        30.1169   -5.5859   -0.0178 H         1 UNK         0.0731 
     80 H80        31.2910   -4.2921   -0.0512 H         1 UNK         0.0731 
     81 H81        32.2595   -4.1228   -2.2193 H         1 UNK         0.1312 
     82 H82        29.8667   -4.4402   -5.7560 H         1 UNK         0.1406 
     83 H83        28.0744   -4.9813   -1.8963 H         1 UNK         0.1631 
     84 H84        26.9811   -3.9319   -4.5794 H         1 UNK         0.0717 
     85 H85        26.7952   -5.4886   -3.8177 H         1 UNK         0.0717 
     86 H86        28.0003   -3.5653   -6.9003 H         1 UNK         0.0934 
     87 H87        27.8899   -4.7371   -8.1863 H         1 UNK         0.0934 
     88 H88        25.3408   -4.7540   -7.8605 H         1 UNK         0.0739 
     89 H89        25.8787   -2.3251   -6.1930 H         1 UNK         0.3093 
     90 H90        22.8063   -2.4268   -4.6779 H         1 UNK         0.0818 
     91 H91        25.0607   -3.7965   -3.1182 H         1 UNK         0.0819 
     92 H92        23.6167   -3.0502   -2.4467 H         1 UNK         0.0819 
     93 H93        23.4782   -4.5005   -3.4249 H         1 UNK         0.0819 
     94 H94        25.4879   -1.5354   -3.8468 H         1 UNK         0.3041 
     95 H95        25.4412    1.3703   -5.7775 H         1 UNK         0.0784 
     96 H96        24.7367    1.4127   -2.8002 H         1 UNK         0.0793 
     97 H97        23.8783    2.2617   -4.0768 H         1 UNK         0.0793 
     98 H98        25.5271    2.7190   -3.6842 H         1 UNK         0.0793 
     99 H99        27.0751    0.7900   -3.5658 H         1 UNK         0.3024 
    100 H100       29.1264   -1.7463   -4.8189 H         1 UNK         0.1171 
    101 H101       29.9407    0.0745   -6.3246 H         1 UNK         0.0786 
    102 H102       29.7947    1.2459   -5.0196 H         1 UNK         0.0786 
    103 H103       30.9674   -0.0615   -4.9061 H         1 UNK         0.0786 
    104 H104       29.7474    0.0383   -2.7788 H         1 UNK         0.2977 
    105 H105       26.5073   -1.3545   -7.8412 H         1 UNK         0.3127 
    106 H106       25.8372   -1.0863  -10.7149 H         1 UNK         0.0770 
    107 H107       28.5000   -0.2304   -9.4141 H         1 UNK         0.0814 
    108 H108       28.0275    0.0789  -11.0825 H         1 UNK         0.0814 
    109 H109       28.3241   -1.5630  -10.5508 H         1 UNK         0.0814 
    110 H110       26.3124    1.4803  -11.1132 H         1 UNK         0.2983 
    111 H111       24.5020    2.9316   -9.3662 H         1 UNK         0.0947 
    112 H112       24.8610    4.7583  -11.0074 H         1 UNK         0.0806 
    113 H113       24.5085    3.2520  -11.8338 H         1 UNK         0.0806 
    114 H114       26.1647    3.8568  -11.7685 H         1 UNK         0.0806 
    115 H115       26.3470    2.1324   -7.7014 H         1 UNK         0.3000 
    116 H116       27.8225    2.5860   -6.0983 H         1 UNK         0.0850 
    117 H117       27.8531    4.8416   -5.1070 H         1 UNK         0.0810 
    118 H118       26.2131    4.4363   -5.5828 H         1 UNK         0.0810 
    119 H119       27.1712    5.5407   -6.5684 H         1 UNK         0.0810 
    120 H120       28.8721    2.2940   -8.7542 H         1 UNK         0.3040 
    121 H121       30.8899    4.1982   -9.3554 H         1 UNK         0.0766 
    122 H122       29.6386    2.8446  -11.0431 H         1 UNK         0.0812 
    123 H123       30.4489    1.3822  -10.4763 H         1 UNK         0.0812 
    124 H124       31.3711    2.6704  -11.2376 H         1 UNK         0.0812 
    125 H125       31.3710    3.2022   -6.7303 H         1 UNK         0.3205 
    126 H126       32.9352    2.4583   -5.2962 H         1 UNK         0.0754 
    127 H127       35.1534    3.4752   -5.7168 H         1 UNK         0.0769 
    128 H128       33.8912    4.5628   -6.2643 H         1 UNK         0.0769 
    129 H129       34.8025    3.6108   -7.4354 H         1 UNK         0.0769 
    130 H130       32.1803    0.3117   -7.1339 H         1 UNK         0.2981 
    131 H131       32.6307   -1.7757   -7.6452 H         1 UNK         0.0541 
    132 H132       33.9627    0.5331   -9.2668 H         1 UNK         0.3459 
    133 H133       35.0707   -0.3752  -10.2704 H         1 UNK         0.3459 
    134 H134       35.0434   -1.6675   -5.7668 H         1 UNK         0.0612 
    135 H135       34.3941   -3.1187   -6.4704 H         1 UNK         0.0612 
    136 H136       33.2364   -4.6322   -4.6314 H         1 UNK         0.0624 
    137 H137       32.2086   -4.1975   -5.9800 H         1 UNK         0.0624 
@<TRIPOS>BOND
     1    1    2 1    
     2    1   72 1    
     3    1   73 1    
     4    1   74 1    
     5    2    3 2    
     6    2    4 am   BACKBONE|DICT|INTERRES
     7    4    5 1    
     8    4   75 1    
     9    5    6 1    
    10    5   35 1    
    11    5   76 1    
    12    6    7 1    
    13    6   77 1    
    14    6   78 1    
    15    7    8 1    
    16    8    9 1    
    17    8   79 1    
    18    8   80 1    
    19    9   10 ar   
    20    9   14 ar   
    21   10   11 ar   
    22   10   81 1    
    23   11   12 ar   
    24   11   71 1    
    25   12   13 ar   
    26   12   82 1    
    27   13   14 ar   
    28   13   15 1    
    29   14   83 1    
    30   15   16 1    
    31   15   84 1    
    32   15   85 1    
    33   16   17 1    
    34   17   18 1    
    35   17   86 1    
    36   17   87 1    
    37   18   19 1    
    38   18   37 1    
    39   18   88 1    
    40   19   20 am   BACKBONE|DICT|INTERRES
    41   19   89 1    
    42   20   21 2    
    43   20   22 1    
    44   22   23 1    
    45   22   24 1    
    46   22   90 1    
    47   23   91 1    
    48   23   92 1    
    49   23   93 1    
    50   24   25 am   BACKBONE|DICT|INTERRES
    51   24   94 1    
    52   25   26 2    
    53   25   27 1    
    54   27   28 1    
    55   27   29 1    
    56   27   95 1    
    57   28   96 1    
    58   28   97 1    
    59   28   98 1    
    60   29   30 am   BACKBONE|DICT|INTERRES
    61   29   99 1    
    62   30   31 2    
    63   30   32 1    
    64   32   33 1    
    65   32   34 1    
    66   32  100 1    
    67   33  101 1    
    68   33  102 1    
    69   33  103 1    
    70   34   35 am   BACKBONE|DICT|INTERRES
    71   34  104 1    
    72   35   36 2    
    73   37   38 2    
    74   37   39 am   BACKBONE|DICT|INTERRES
    75   39   40 1    
    76   39  105 1    
    77   40   41 1    
    78   40   42 1    
    79   40  106 1    
    80   41  107 1    
    81   41  108 1    
    82   41  109 1    
    83   42   43 2    
    84   42   44 am   BACKBONE|DICT|INTERRES
    85   44   45 1    
    86   44  110 1    
    87   45   46 1    
    88   45   47 1    
    89   45  111 1    
    90   46  112 1    
    91   46  113 1    
    92   46  114 1    
    93   47   48 2    
    94   47   49 am   BACKBONE|DICT|INTERRES
    95   49   50 1    
    96   49  115 1    
    97   50   51 1    
    98   50   52 1    
    99   50  116 1    
   100   51  117 1    
   101   51  118 1    
   102   51  119 1    
   103   52   53 2    
   104   52   54 am   BACKBONE|DICT|INTERRES
   105   54   55 1    
   106   54  120 1    
   107   55   56 1    
   108   55   57 1    
   109   55  121 1    
   110   56  122 1    
   111   56  123 1    
   112   56  124 1    
   113   57   58 2    
   114   57   59 am   BACKBONE|DICT|INTERRES
   115   59   60 1    
   116   59  125 1    
   117   60   61 1    
   118   60   62 1    
   119   60  126 1    
   120   61  127 1    
   121   61  128 1    
   122   61  129 1    
   123   62   63 2    
   124   62   64 am   BACKBONE|DICT|INTERRES
   125   64   65 1    
   126   64  130 1    
   127   65   66 1    
   128   65   69 1    
   129   65  131 1    
   130   66   67 am   BACKBONE|DICT|INTERRES
   131   66   68 2    
   132   67  132 1    
   133   67  133 1    
   134   69   70 1    
   135   69  134 1    
   136   69  135 1    
   137   70   71 1    
   138   71  136 1    
   139   71  137 1    
@<TRIPOS>SUBSTRUCTURE
     1 UNK         1 GROUP             0       ****    0 ROOT    
