@<TRIPOS>MOLECULE
3R137
137   139    1
SMALL
USER_CHARGES


@<TRIPOS>ATOM
      1 CA         29.3190   -0.0277   -1.8019 C.3       0 UNK        -0.2020 
      2 C          29.9598   -0.6399   -0.5579 C.2       0 UNK         0.4855 
      3 O          30.6624    0.0649    0.1639 O.2       0 UNK        -0.5197 
      4 N          29.7621   -1.9323   -0.2584 N.am      1 UNK        -0.4892 
      5 CA         28.8853   -2.8880   -0.9476 C.3       1 UNK         0.0835 
      6 C6         29.1343   -4.3255   -0.4256 C.3       12 UNK        -0.0855 
      7 S7         28.5881   -5.6167   -1.5951 S.3       12 UNK        -0.2931 
      8 C8         30.1381   -6.0178   -2.4632 C.3       12 UNK         0.0378 
      9 C9         30.5238   -4.9316   -3.4569 C.ar      12 UNK        -0.0802 
     10 C10        31.5211   -4.0027   -3.1444 C.ar      12 UNK        -0.0944 
     11 C11        31.8874   -3.0219   -4.0703 C.ar      12 UNK        -0.0787 
     12 C12        31.2389   -2.9665   -5.3080 C.ar      12 UNK        -0.0862 
     13 C13        30.2364   -3.8843   -5.6347 C.ar      12 UNK        -0.0733 
     14 C14        29.8920   -4.8722   -4.7029 C.ar      12 UNK        -0.0832 
     15 C15        29.5931   -3.8043   -7.0196 C.3       12 UNK         0.0240 
     16 S16        27.9037   -4.4894   -7.1398 S.3       12 UNK        -0.2522 
     17 C17        26.9334   -3.2959   -6.1613 C.3       12 UNK        -0.0967 
     18 CA         26.2759   -2.2148   -7.0570 C.3       5 UNK         0.0660 
     19 N          24.9867   -1.7564   -6.5405 N.am      5 UNK        -0.4015 
     20 C          24.0408   -1.1684   -7.2890 C.2       4 UNK         0.4946 
     21 O          24.1158   -1.0381   -8.5109 O.2       4 UNK        -0.5353 
     22 CA         22.8075   -0.6118   -6.5545 C.3       4 UNK         0.0277 
     23 CB         21.6825   -1.6588   -6.5236 C.3       4 UNK        -0.1981 
     24 N          23.0981   -0.1697   -5.1882 N.am      4 UNK        -0.4209 
     25 C          23.8893    0.8673   -4.8772 C.2       3 UNK         0.4942 
     26 O          24.4171    1.6003   -5.7120 O.2       3 UNK        -0.5208 
     27 CA         24.1927    1.0794   -3.3838 C.3       3 UNK         0.0250 
     28 CB         23.1094    1.9521   -2.7308 C.3       3 UNK        -0.1990 
     29 N          24.3389   -0.1744   -2.6326 N.am      3 UNK        -0.4232 
     30 C          25.2601   -1.1121   -2.8927 C.2       2 UNK         0.4993 
     31 O          26.0706   -1.0386   -3.8217 O.2       2 UNK        -0.5286 
     32 CA         25.2337   -2.3724   -2.0194 C.3       2 UNK         0.0209 
     33 CB         24.3978   -3.4717   -2.6949 C.3       2 UNK        -0.1931 
     34 N          26.6010   -2.8549   -1.8369 N.am      2 UNK        -0.4546 
     35 C          27.3995   -2.4802   -0.8323 C.2       1 UNK         0.5154 
     36 O          27.0108   -1.8304    0.1424 O.2       1 UNK        -0.5181 
     37 C          27.2064   -1.0123   -7.2801 C.2       5 UNK         0.5014 
     38 O          27.7643   -0.8813   -8.3678 O.2       5 UNK        -0.5248 
     39 N          27.3130   -0.1302   -6.2739 N.am      6 UNK        -0.4434 
     40 CA         28.1203    1.0951   -6.3127 C.3       6 UNK         0.0363 
     41 CB         28.0382    1.8051   -4.9542 C.3       6 UNK        -0.1936 
     42 C          27.7329    2.0622   -7.4467 C.2       6 UNK         0.5081 
     43 O          28.6065    2.7289   -7.9990 O.2       6 UNK        -0.5248 
     44 N          26.4398    2.1037   -7.7941 N.am      7 UNK        -0.4718 
     45 CA         25.9083    2.8466   -8.9384 C.3       7 UNK         0.0273 
     46 CB         24.3741    2.8766   -8.8470 C.3       7 UNK        -0.1935 
     47 C          26.3516    2.2847  -10.3034 C.2       7 UNK         0.5018 
     48 O          26.4076    3.0476  -11.2690 O.2       7 UNK        -0.5186 
     49 N          26.6434    0.9782  -10.3702 N.am      8 UNK        -0.4240 
     50 CA         27.0988    0.2889  -11.5780 C.3       8 UNK         0.0235 
     51 CB         26.5168   -1.1349  -11.6064 C.3       8 UNK        -0.2000 
     52 C          28.6321    0.2525  -11.6622 C.2       8 UNK         0.4941 
     53 O          29.1822    0.5218  -12.7310 O.2       8 UNK        -0.5273 
     54 N          29.2922   -0.0781  -10.5466 N.am      9 UNK        -0.4262 
     55 CA         30.7404   -0.1908  -10.4194 C.3       9 UNK         0.0264 
     56 CB         31.1608   -1.6588  -10.6215 C.3       9 UNK        -0.1955 
     57 C          31.1383    0.3371   -9.0378 C.2       9 UNK         0.5031 
     58 O          31.0240   -0.3922   -8.0507 O.2       9 UNK        -0.5390 
     59 N          31.5705    1.6037   -8.9897 N.am      10 UNK        -0.4204 
     60 CA         32.0041    2.2909   -7.7711 C.3       10 UNK         0.0237 
     61 CB         32.2404    3.7779   -8.0810 C.3       10 UNK        -0.1985 
     62 C          33.2664    1.6547   -7.1663 C.2       10 UNK         0.4970 
     63 O          34.1830    1.2892   -7.9071 O.2       10 UNK        -0.4914 
     64 N          33.2828    1.5445   -5.8349 N.am      11 UNK        -0.4285 
     65 CA         34.3675    0.9351   -5.0546 C.3       11 UNK         0.1007 
     66 C          35.6653    1.7879   -5.0552 C.2       11 UNK         0.5703 
     67 N          36.8248    1.1522   -4.9529 N.am      11 UNK        -0.7361 
     68 O          35.6297    3.0165   -5.1068 O.2       11 UNK        -0.4986 
     69 C69        33.9163    0.6114   -3.6048 C.3       12 UNK        -0.0947 
     70 S70        32.3711   -0.3556   -3.5406 S.3       12 UNK        -0.2240 
     71 C71        33.0081   -2.0419   -3.7593 C.3       12 UNK         0.0194 
     72 H72        28.2748    0.2218   -1.6153 H         1 UNK         0.0906 
     73 H73        29.8358    0.8923   -2.0746 H         1 UNK         0.0906 
     74 H74        29.3744   -0.6946   -2.6615 H         1 UNK         0.0906 
     75 H75        30.1869   -2.2831    0.5878 H         1 UNK         0.3140 
     76 H76        29.1578   -2.8599   -2.0038 H         1 UNK         0.1085 
     77 H77        28.6389   -4.4854    0.5344 H         1 UNK         0.0836 
     78 H78        30.1973   -4.4771   -0.2307 H         1 UNK         0.0836 
     79 H79        30.9373   -6.1893   -1.7404 H         1 UNK         0.0731 
     80 H80        30.0068   -6.9618   -2.9944 H         1 UNK         0.0731 
     81 H81        32.0194   -4.0503   -2.1856 H         1 UNK         0.1312 
     82 H82        31.5254   -2.2069   -6.0244 H         1 UNK         0.1406 
     83 H83        29.1336   -5.6051   -4.9408 H         1 UNK         0.1631 
     84 H84        30.2297   -4.3468   -7.7193 H         1 UNK         0.0717 
     85 H85        29.5771   -2.7697   -7.3655 H         1 UNK         0.0717 
     86 H86        26.1619   -3.8803   -5.6591 H         1 UNK         0.0934 
     87 H87        27.5405   -2.8663   -5.3613 H         1 UNK         0.0934 
     88 H88        26.0808   -2.6588   -8.0364 H         1 UNK         0.0739 
     89 H89        24.8845   -1.7540   -5.5353 H         1 UNK         0.3093 
     90 H90        22.4549    0.2546   -7.1187 H         1 UNK         0.0818 
     91 H91        20.7730   -1.2519   -6.0812 H         1 UNK         0.0819 
     92 H92        21.4295   -1.9879   -7.5326 H         1 UNK         0.0819 
     93 H93        21.9674   -2.5445   -5.9543 H         1 UNK         0.0819 
     94 H94        22.6949   -0.7083   -4.4356 H         1 UNK         0.3041 
     95 H95        25.1431    1.6123   -3.3170 H         1 UNK         0.0784 
     96 H96        22.9980    2.8978   -3.2633 H         1 UNK         0.0793 
     97 H97        22.1357    1.4606   -2.7324 H         1 UNK         0.0793 
     98 H98        23.3629    2.1932   -1.6982 H         1 UNK         0.0793 
     99 H99        23.7014   -0.3140   -1.8613 H         1 UNK         0.3024 
    100 H100       24.7865   -2.1346   -1.0512 H         1 UNK         0.1171 
    101 H101       23.3637   -3.1522   -2.8304 H         1 UNK         0.0786 
    102 H102       24.3775   -4.3781   -2.0892 H         1 UNK         0.0786 
    103 H103       24.7891   -3.7380   -3.6768 H         1 UNK         0.0786 
    104 H104       26.9966   -3.3790   -2.6044 H         1 UNK         0.2977 
    105 H105       26.8303   -0.3323   -5.4008 H         1 UNK         0.3127 
    106 H106       29.1553    0.7908   -6.4779 H         1 UNK         0.0770 
    107 H107       27.0295    2.1638   -4.7491 H         1 UNK         0.0814 
    108 H108       28.7043    2.6683   -4.9251 H         1 UNK         0.0814 
    109 H109       28.3294    1.1406   -4.1430 H         1 UNK         0.0814 
    110 H110       25.7677    1.6090   -7.2153 H         1 UNK         0.2983 
    111 H111       26.2768    3.8727   -8.8732 H         1 UNK         0.0947 
    112 H112       23.9427    3.4407   -9.6751 H         1 UNK         0.0806 
    113 H113       24.0411    3.3511   -7.9236 H         1 UNK         0.0806 
    114 H114       23.9500    1.8720   -8.8784 H         1 UNK         0.0806 
    115 H115       26.6300    0.4316   -9.5166 H         1 UNK         0.3000 
    116 H116       26.7281    0.8152  -12.4604 H         1 UNK         0.0850 
    117 H117       26.8178   -1.6604  -12.5136 H         1 UNK         0.0810 
    118 H118       25.4269   -1.1161  -11.5877 H         1 UNK         0.0810 
    119 H119       26.8523   -1.7318  -10.7577 H         1 UNK         0.0810 
    120 H120       28.7616   -0.2981   -9.7013 H         1 UNK         0.3040 
    121 H121       31.2364    0.4179  -11.1786 H         1 UNK         0.0766 
    122 H122       32.2350   -1.7798  -10.4776 H         1 UNK         0.0812 
    123 H123       30.9253   -2.0022  -11.6288 H         1 UNK         0.0812 
    124 H124       30.6585   -2.3228   -9.9165 H         1 UNK         0.0812 
    125 H125       31.6313    2.1299   -9.8487 H         1 UNK         0.3205 
    126 H126       31.1912    2.2159   -7.0457 H         1 UNK         0.0754 
    127 H127       32.5458    4.3198   -7.1848 H         1 UNK         0.0769 
    128 H128       31.3315    4.2533   -8.4513 H         1 UNK         0.0769 
    129 H129       33.0233    3.9157   -8.8281 H         1 UNK         0.0769 
    130 H130       32.4993    1.8854   -5.2991 H         1 UNK         0.2981 
    131 H131       34.6070   -0.0107   -5.5443 H         1 UNK         0.0541 
    132 H132       36.8669    0.1465   -4.8974 H         1 UNK         0.3459 
    133 H133       37.6774    1.6899   -4.9365 H         1 UNK         0.3459 
    134 H134       33.7514    1.5333   -3.0438 H         1 UNK         0.0612 
    135 H135       34.6952    0.0649   -3.0697 H         1 UNK         0.0612 
    136 H136       33.7280   -2.0589   -4.5784 H         1 UNK         0.0624 
    137 H137       33.5505   -2.3383   -2.8602 H         1 UNK         0.0624 
@<TRIPOS>BOND
     1    1    2 1    
     2    1   72 1    
     3    1   73 1    
     4    1   74 1    
     5    2    3 2    
     6    2    4 am   BACKBONE|DICT|INTERRES
     7    4    5 1    
     8    4   75 1    
     9    5    6 1    
    10    5   35 1    
    11    5   76 1    
    12    6    7 1    
    13    6   77 1    
    14    6   78 1    
    15    7    8 1    
    16    8    9 1    
    17    8   79 1    
    18    8   80 1    
    19    9   10 ar   
    20    9   14 ar   
    21   10   11 ar   
    22   10   81 1    
    23   11   12 ar   
    24   11   71 1    
    25   12   13 ar   
    26   12   82 1    
    27   13   14 ar   
    28   13   15 1    
    29   14   83 1    
    30   15   16 1    
    31   15   84 1    
    32   15   85 1    
    33   16   17 1    
    34   17   18 1    
    35   17   86 1    
    36   17   87 1    
    37   18   19 1    
    38   18   37 1    
    39   18   88 1    
    40   19   20 am   BACKBONE|DICT|INTERRES
    41   19   89 1    
    42   20   21 2    
    43   20   22 1    
    44   22   23 1    
    45   22   24 1    
    46   22   90 1    
    47   23   91 1    
    48   23   92 1    
    49   23   93 1    
    50   24   25 am   BACKBONE|DICT|INTERRES
    51   24   94 1    
    52   25   26 2    
    53   25   27 1    
    54   27   28 1    
    55   27   29 1    
    56   27   95 1    
    57   28   96 1    
    58   28   97 1    
    59   28   98 1    
    60   29   30 am   BACKBONE|DICT|INTERRES
    61   29   99 1    
    62   30   31 2    
    63   30   32 1    
    64   32   33 1    
    65   32   34 1    
    66   32  100 1    
    67   33  101 1    
    68   33  102 1    
    69   33  103 1    
    70   34   35 am   BACKBONE|DICT|INTERRES
    71   34  104 1    
    72   35   36 2    
    73   37   38 2    
    74   37   39 am   BACKBONE|DICT|INTERRES
    75   39   40 1    
    76   39  105 1    
    77   40   41 1    
    78   40   42 1    
    79   40  106 1    
    80   41  107 1    
    81   41  108 1    
    82   41  109 1    
    83   42   43 2    
    84   42   44 am   BACKBONE|DICT|INTERRES
    85   44   45 1    
    86   44  110 1    
    87   45   46 1    
    88   45   47 1    
    89   45  111 1    
    90   46  112 1    
    91   46  113 1    
    92   46  114 1    
    93   47   48 2    
    94   47   49 am   BACKBONE|DICT|INTERRES
    95   49   50 1    
    96   49  115 1    
    97   50   51 1    
    98   50   52 1    
    99   50  116 1    
   100   51  117 1    
   101   51  118 1    
   102   51  119 1    
   103   52   53 2    
   104   52   54 am   BACKBONE|DICT|INTERRES
   105   54   55 1    
   106   54  120 1    
   107   55   56 1    
   108   55   57 1    
   109   55  121 1    
   110   56  122 1    
   111   56  123 1    
   112   56  124 1    
   113   57   58 2    
   114   57   59 am   BACKBONE|DICT|INTERRES
   115   59   60 1    
   116   59  125 1    
   117   60   61 1    
   118   60   62 1    
   119   60  126 1    
   120   61  127 1    
   121   61  128 1    
   122   61  129 1    
   123   62   63 2    
   124   62   64 am   BACKBONE|DICT|INTERRES
   125   64   65 1    
   126   64  130 1    
   127   65   66 1    
   128   65   69 1    
   129   65  131 1    
   130   66   67 am   BACKBONE|DICT|INTERRES
   131   66   68 2    
   132   67  132 1    
   133   67  133 1    
   134   69   70 1    
   135   69  134 1    
   136   69  135 1    
   137   70   71 1    
   138   71  136 1    
   139   71  137 1    
@<TRIPOS>SUBSTRUCTURE
     1 UNK         1 GROUP             0       ****    0 ROOT    
