@<TRIPOS>MOLECULE
3R137
137   139    1
SMALL
USER_CHARGES


@<TRIPOS>ATOM
      1 CA         30.3172    1.0764   -3.7545 C.3       0 UNK        -0.2020 
      2 C          29.4206    0.3716   -2.7489 C.2       0 UNK         0.4855 
      3 O          28.9072    1.0130   -1.8325 O.2       0 UNK        -0.5197 
      4 N          29.2169   -0.9409   -2.9219 N.am      1 UNK        -0.4892 
      5 CA         28.4598   -1.8603   -2.0548 C.3       1 UNK         0.0835 
      6 C6         29.0295   -1.9265   -0.6092 C.3       12 UNK        -0.0855 
      7 S7         28.7627   -3.5435    0.1970 S.3       12 UNK        -0.2931 
      8 C8         30.3091   -4.4298   -0.2015 C.3       12 UNK         0.0378 
      9 C9         30.4904   -4.6024   -1.7034 C.ar      12 UNK        -0.0802 
     10 C10        31.5333   -3.9529   -2.3719 C.ar      12 UNK        -0.0944 
     11 C11        31.6574   -4.0577   -3.7606 C.ar      12 UNK        -0.0787 
     12 C12        30.7261   -4.8086   -4.4825 C.ar      12 UNK        -0.0862 
     13 C13        29.6777   -5.4580   -3.8250 C.ar      12 UNK        -0.0733 
     14 C14        29.5816   -5.3750   -2.4332 C.ar      12 UNK        -0.0832 
     15 C15        28.6249   -6.2183   -4.6173 C.3       12 UNK         0.0240 
     16 S16        27.0224   -5.3506   -4.5931 S.3       12 UNK        -0.2522 
     17 C17        27.4020   -3.7978   -5.4796 C.3       12 UNK        -0.0967 
     18 CA         26.3849   -3.5030   -6.6136 C.3       5 UNK         0.0660 
     19 N          25.0412   -3.2968   -6.0729 N.am      5 UNK        -0.4015 
     20 C          23.9744   -4.0744   -6.2957 C.2       4 UNK         0.4946 
     21 O          23.9910   -5.0724   -7.0189 O.2       4 UNK        -0.5353 
     22 CA         22.6584   -3.7012   -5.5829 C.3       4 UNK         0.0277 
     23 CB         22.4293   -4.6225   -4.3730 C.3       4 UNK        -0.1981 
     24 N          22.6153   -2.3092   -5.1313 N.am      4 UNK        -0.4209 
     25 C          22.4802   -1.2485   -5.9382 C.2       3 UNK         0.4942 
     26 O          22.2383   -1.3374   -7.1425 O.2       3 UNK        -0.5208 
     27 CA         22.6478    0.1501   -5.3097 C.3       3 UNK         0.0250 
     28 CB         21.2851    0.8550   -5.2003 C.3       3 UNK        -0.1990 
     29 N          23.3096    0.1892   -3.9964 N.am      3 UNK        -0.4232 
     30 C          24.5518   -0.2397   -3.7293 C.2       2 UNK         0.4993 
     31 O          25.2572   -0.8178   -4.5587 O.2       2 UNK        -0.5286 
     32 CA         25.0846    0.0547   -2.3115 C.3       2 UNK         0.0209 
     33 CB         24.1506   -0.4919   -1.2087 C.3       2 UNK        -0.1931 
     34 N          26.4660   -0.4077   -2.1135 N.am      2 UNK        -0.4546 
     35 C          26.9253   -1.6670   -2.0899 C.2       1 UNK         0.5154 
     36 O          26.1982   -2.6607   -2.1264 O.2       1 UNK        -0.5181 
     37 C          26.7806   -2.2679   -7.4508 C.2       5 UNK         0.5014 
     38 O          25.9548   -1.3830   -7.6938 O.2       5 UNK        -0.5248 
     39 N          28.0430   -2.2242   -7.9005 N.am      6 UNK        -0.4434 
     40 CA         28.6279   -1.1790   -8.7484 C.3       6 UNK         0.0363 
     41 CB         29.9072   -1.7366   -9.4006 C.3       6 UNK        -0.1936 
     42 C          28.8835    0.1566   -8.0158 C.2       6 UNK         0.5081 
     43 O          29.9747    0.7203   -8.1234 O.2       6 UNK        -0.5248 
     44 N          27.8746    0.6698   -7.3020 N.am      7 UNK        -0.4718 
     45 CA         27.9156    1.9520   -6.5902 C.3       7 UNK         0.0273 
     46 CB         26.7338    2.0450   -5.6159 C.3       7 UNK        -0.1935 
     47 C          27.9745    3.1801   -7.5136 C.2       7 UNK         0.5018 
     48 O          28.4625    4.2238   -7.0822 O.2       7 UNK        -0.5186 
     49 N          27.5284    3.0295   -8.7694 N.am      8 UNK        -0.4240 
     50 CA         27.6680    4.0374   -9.8255 C.3       8 UNK         0.0235 
     51 CB         26.8208    3.6300  -11.0419 C.3       8 UNK        -0.2000 
     52 C          29.1351    4.2646  -10.2352 C.2       8 UNK         0.4941 
     53 O          29.5218    5.4050  -10.4921 O.2       8 UNK        -0.5273 
     54 N          29.9245    3.1810  -10.2654 N.am      9 UNK        -0.4262 
     55 CA         31.3724    3.2129  -10.4921 C.3       9 UNK         0.0264 
     56 CB         31.8053    1.8825  -11.1306 C.3       9 UNK        -0.1955 
     57 C          32.1652    3.4534   -9.1941 C.2       9 UNK         0.5031 
     58 O          33.3176    3.8807   -9.2693 O.2       9 UNK        -0.5390 
     59 N          31.5387    3.1522   -8.0464 N.am      10 UNK        -0.4204 
     60 CA         32.1030    3.0678   -6.6965 C.3       10 UNK         0.0237 
     61 CB         32.6675    4.4236   -6.2210 C.3       10 UNK        -0.1985 
     62 C          33.1031    1.9020   -6.5905 C.2       10 UNK         0.4970 
     63 O          34.2072    2.0810   -6.0727 O.2       10 UNK        -0.4914 
     64 N          32.6863    0.7330   -7.1005 N.am      11 UNK        -0.4285 
     65 CA         33.4892   -0.4942   -7.2270 C.3       11 UNK         0.1007 
     66 C          34.7077   -0.3053   -8.1842 C.2       11 UNK         0.5703 
     67 N          35.8253   -0.9879   -7.9679 N.am      11 UNK        -0.7361 
     68 O          34.6253    0.4178   -9.1752 O.2       11 UNK        -0.4986 
     69 C69        33.8289   -1.1371   -5.8480 C.3       12 UNK        -0.0947 
     70 S70        32.3345   -1.6564   -4.9390 S.3       12 UNK        -0.2240 
     71 C71        32.7926   -3.3558   -4.4860 C.3       12 UNK         0.0194 
     72 H72        31.3463    1.0873   -3.3960 H         1 UNK         0.0906 
     73 H73        30.2976    0.5804   -4.7247 H         1 UNK         0.0906 
     74 H74        29.9952    2.1083   -3.8909 H         1 UNK         0.0906 
     75 H75        29.6710   -1.3918   -3.7049 H         1 UNK         0.3140 
     76 H76        28.6204   -2.8302   -2.5222 H         1 UNK         0.1085 
     77 H77        28.5998   -1.1414    0.0158 H         1 UNK         0.0836 
     78 H78        30.1034   -1.7334   -0.6186 H         1 UNK         0.0836 
     79 H79        30.2877   -5.4124    0.2718 H         1 UNK         0.0731 
     80 H80        31.1536   -3.8955    0.2370 H         1 UNK         0.0731 
     81 H81        32.2396   -3.3508   -1.8164 H         1 UNK         0.1312 
     82 H82        30.8112   -4.8737   -5.5587 H         1 UNK         0.1406 
     83 H83        28.7617   -5.8632   -1.9230 H         1 UNK         0.1631 
     84 H84        28.4965   -7.2122   -4.1863 H         1 UNK         0.0717 
     85 H85        28.9405   -6.3695   -5.6508 H         1 UNK         0.0717 
     86 H86        27.4107   -2.9811   -4.7565 H         1 UNK         0.0934 
     87 H87        28.4164   -3.8670   -5.8708 H         1 UNK         0.0934 
     88 H88        26.3851   -4.3479   -7.3051 H         1 UNK         0.0739 
     89 H89        24.9367   -2.4452   -5.5257 H         1 UNK         0.3093 
     90 H90        21.8440   -3.8580   -6.2936 H         1 UNK         0.0818 
     91 H91        23.2164   -4.5091   -3.6258 H         1 UNK         0.0819 
     92 H92        21.4732   -4.4177   -3.8910 H         1 UNK         0.0819 
     93 H93        22.4195   -5.6701   -4.6773 H         1 UNK         0.0819 
     94 H94        22.8111   -2.1402   -4.1556 H         1 UNK         0.3041 
     95 H95        23.2727    0.7235   -5.9977 H         1 UNK         0.0784 
     96 H96        20.7771    0.8788   -6.1656 H         1 UNK         0.0793 
     97 H97        20.6240    0.3466   -4.4973 H         1 UNK         0.0793 
     98 H98        21.3963    1.8887   -4.8723 H         1 UNK         0.0793 
     99 H99        22.7933    0.6469   -3.2588 H         1 UNK         0.3024 
    100 H100       25.1218    1.1411   -2.2157 H         1 UNK         0.1171 
    101 H101       23.9532   -1.5575   -1.3305 H         1 UNK         0.0786 
    102 H102       23.1866    0.0173   -1.2128 H         1 UNK         0.0786 
    103 H103       24.5814   -0.3451   -0.2182 H         1 UNK         0.0786 
    104 H104       27.1773    0.3184   -2.0701 H         1 UNK         0.2977 
    105 H105       28.6633   -2.9824   -7.6584 H         1 UNK         0.3127 
    106 H106       27.9190   -0.9607   -9.5497 H         1 UNK         0.0770 
    107 H107       30.6704   -1.9675   -8.6568 H         1 UNK         0.0814 
    108 H108       30.3381   -1.0194  -10.0998 H         1 UNK         0.0814 
    109 H109       29.7022   -2.6459   -9.9658 H         1 UNK         0.0814 
    110 H110       27.0070    0.1381   -7.2685 H         1 UNK         0.2983 
    111 H111       28.8331    1.9755   -6.0033 H         1 UNK         0.0947 
    112 H112       25.7787    1.8812   -6.1162 H         1 UNK         0.0806 
    113 H113       26.6918    3.0230   -5.1344 H         1 UNK         0.0806 
    114 H114       26.8343    1.3048   -4.8235 H         1 UNK         0.0806 
    115 H115       27.1162    2.1439   -9.0253 H         1 UNK         0.3000 
    116 H116       27.2818    4.9842   -9.4411 H         1 UNK         0.0850 
    117 H117       26.8938    4.3765  -11.8341 H         1 UNK         0.0810 
    118 H118       25.7663    3.5419  -10.7793 H         1 UNK         0.0810 
    119 H119       27.1435    2.6767  -11.4623 H         1 UNK         0.0810 
    120 H120       29.5218    2.2812  -10.0454 H         1 UNK         0.3040 
    121 H121       31.6131    4.0208  -11.1866 H         1 UNK         0.0766 
    122 H122       31.2787    1.6982  -12.0670 H         1 UNK         0.0812 
    123 H123       31.6221    1.0375  -10.4660 H         1 UNK         0.0812 
    124 H124       32.8732    1.8885  -11.3542 H         1 UNK         0.0812 
    125 H125       30.6181    2.7431   -8.1396 H         1 UNK         0.3205 
    126 H126       31.2711    2.8160   -6.0383 H         1 UNK         0.0754 
    127 H127       32.9558    4.3759   -5.1703 H         1 UNK         0.0769 
    128 H128       31.9255    5.2161   -6.3185 H         1 UNK         0.0769 
    129 H129       33.5524    4.7198   -6.7848 H         1 UNK         0.0769 
    130 H130       31.7612    0.6930   -7.5196 H         1 UNK         0.2981 
    131 H131       32.8488   -1.1987   -7.7577 H         1 UNK         0.0541 
    132 H132       35.9177   -1.6010   -7.1741 H         1 UNK         0.3459 
    133 H133       36.5963   -0.8751   -8.6073 H         1 UNK         0.3459 
    134 H134       34.4599   -2.0161   -5.9814 H         1 UNK         0.0612 
    135 H135       34.3987   -0.4492   -5.2222 H         1 UNK         0.0612 
    136 H136       33.6833   -3.3341   -3.8561 H         1 UNK         0.0624 
    137 H137       33.0608   -3.9122   -5.3855 H         1 UNK         0.0624 
@<TRIPOS>BOND
     1    1    2 1    
     2    1   72 1    
     3    1   73 1    
     4    1   74 1    
     5    2    3 2    
     6    2    4 am   BACKBONE|DICT|INTERRES
     7    4    5 1    
     8    4   75 1    
     9    5    6 1    
    10    5   35 1    
    11    5   76 1    
    12    6    7 1    
    13    6   77 1    
    14    6   78 1    
    15    7    8 1    
    16    8    9 1    
    17    8   79 1    
    18    8   80 1    
    19    9   10 ar   
    20    9   14 ar   
    21   10   11 ar   
    22   10   81 1    
    23   11   12 ar   
    24   11   71 1    
    25   12   13 ar   
    26   12   82 1    
    27   13   14 ar   
    28   13   15 1    
    29   14   83 1    
    30   15   16 1    
    31   15   84 1    
    32   15   85 1    
    33   16   17 1    
    34   17   18 1    
    35   17   86 1    
    36   17   87 1    
    37   18   19 1    
    38   18   37 1    
    39   18   88 1    
    40   19   20 am   BACKBONE|DICT|INTERRES
    41   19   89 1    
    42   20   21 2    
    43   20   22 1    
    44   22   23 1    
    45   22   24 1    
    46   22   90 1    
    47   23   91 1    
    48   23   92 1    
    49   23   93 1    
    50   24   25 am   BACKBONE|DICT|INTERRES
    51   24   94 1    
    52   25   26 2    
    53   25   27 1    
    54   27   28 1    
    55   27   29 1    
    56   27   95 1    
    57   28   96 1    
    58   28   97 1    
    59   28   98 1    
    60   29   30 am   BACKBONE|DICT|INTERRES
    61   29   99 1    
    62   30   31 2    
    63   30   32 1    
    64   32   33 1    
    65   32   34 1    
    66   32  100 1    
    67   33  101 1    
    68   33  102 1    
    69   33  103 1    
    70   34   35 am   BACKBONE|DICT|INTERRES
    71   34  104 1    
    72   35   36 2    
    73   37   38 2    
    74   37   39 am   BACKBONE|DICT|INTERRES
    75   39   40 1    
    76   39  105 1    
    77   40   41 1    
    78   40   42 1    
    79   40  106 1    
    80   41  107 1    
    81   41  108 1    
    82   41  109 1    
    83   42   43 2    
    84   42   44 am   BACKBONE|DICT|INTERRES
    85   44   45 1    
    86   44  110 1    
    87   45   46 1    
    88   45   47 1    
    89   45  111 1    
    90   46  112 1    
    91   46  113 1    
    92   46  114 1    
    93   47   48 2    
    94   47   49 am   BACKBONE|DICT|INTERRES
    95   49   50 1    
    96   49  115 1    
    97   50   51 1    
    98   50   52 1    
    99   50  116 1    
   100   51  117 1    
   101   51  118 1    
   102   51  119 1    
   103   52   53 2    
   104   52   54 am   BACKBONE|DICT|INTERRES
   105   54   55 1    
   106   54  120 1    
   107   55   56 1    
   108   55   57 1    
   109   55  121 1    
   110   56  122 1    
   111   56  123 1    
   112   56  124 1    
   113   57   58 2    
   114   57   59 am   BACKBONE|DICT|INTERRES
   115   59   60 1    
   116   59  125 1    
   117   60   61 1    
   118   60   62 1    
   119   60  126 1    
   120   61  127 1    
   121   61  128 1    
   122   61  129 1    
   123   62   63 2    
   124   62   64 am   BACKBONE|DICT|INTERRES
   125   64   65 1    
   126   64  130 1    
   127   65   66 1    
   128   65   69 1    
   129   65  131 1    
   130   66   67 am   BACKBONE|DICT|INTERRES
   131   66   68 2    
   132   67  132 1    
   133   67  133 1    
   134   69   70 1    
   135   69  134 1    
   136   69  135 1    
   137   70   71 1    
   138   71  136 1    
   139   71  137 1    
@<TRIPOS>SUBSTRUCTURE
     1 UNK         1 GROUP             0       ****    0 ROOT    
