@<TRIPOS>MOLECULE
3R137
137   139    1
SMALL
USER_CHARGES


@<TRIPOS>ATOM
      1 CA         23.0194   -4.0306   -1.6509 C.3       0 UNK        -0.2020 
      2 C          24.2446   -3.7853   -0.7829 C.2       0 UNK         0.4855 
      3 O          24.1302   -3.1507    0.2651 O.2       0 UNK        -0.5197 
      4 N          25.4097   -4.2900   -1.2102 N.am      1 UNK        -0.4892 
      5 CA         26.7052   -4.1010   -0.5512 C.3       1 UNK         0.0835 
      6 C6         27.6692   -5.2698   -0.8916 C.3       12 UNK        -0.0855 
      7 S7         29.3027   -5.1491   -0.0806 S.3       12 UNK        -0.2931 
      8 C8         30.4036   -5.9064   -1.3217 C.3       12 UNK         0.0378 
      9 C9         30.5861   -5.0301   -2.5547 C.ar      12 UNK        -0.0802 
     10 C10        31.4579   -3.9373   -2.5190 C.ar      12 UNK        -0.0944 
     11 C11        31.6393   -3.1363   -3.6513 C.ar      12 UNK        -0.0787 
     12 C12        30.9470   -3.4383   -4.8276 C.ar      12 UNK        -0.0862 
     13 C13        30.0747   -4.5287   -4.8754 C.ar      12 UNK        -0.0733 
     14 C14        29.9026   -5.3241   -3.7389 C.ar      12 UNK        -0.0832 
     15 C15        29.3200   -4.8552   -6.1541 C.3       12 UNK         0.0240 
     16 S16        27.7110   -4.0094   -6.2040 S.3       12 UNK        -0.2522 
     17 C17        28.2017   -2.3354   -6.7386 C.3       12 UNK        -0.0967 
     18 CA         26.9953   -1.5259   -7.2685 C.3       5 UNK         0.0660 
     19 N          25.9377   -1.3817   -6.2648 N.am      5 UNK        -0.4015 
     20 C          24.6849   -0.9769   -6.5118 C.2       4 UNK         0.4946 
     21 O          24.2711   -0.6618   -7.6275 O.2       4 UNK        -0.5353 
     22 CA         23.7345   -0.9092   -5.3044 C.3       4 UNK         0.0277 
     23 CB         23.0838   -2.2792   -5.0529 C.3       4 UNK        -0.1981 
     24 N          24.4120   -0.4566   -4.0866 N.am      4 UNK        -0.4209 
     25 C          24.7812    0.8123   -3.8615 C.2       3 UNK         0.4942 
     26 O          24.5237    1.7479   -4.6190 O.2       3 UNK        -0.5208 
     27 CA         25.6027    1.0758   -2.5879 C.3       3 UNK         0.0250 
     28 CB         24.6780    1.2433   -1.3716 C.3       3 UNK        -0.1990 
     29 N          26.6030    0.0419   -2.2997 N.am      3 UNK        -0.4232 
     30 C          27.6098   -0.3163   -3.1062 C.2       2 UNK         0.4993 
     31 O          27.7741    0.1443   -4.2338 O.2       2 UNK        -0.5286 
     32 CA         28.5877   -1.3861   -2.5988 C.3       2 UNK         0.0209 
     33 CB         29.6268   -0.7761   -1.6375 C.3       2 UNK        -0.1931 
     34 N          27.9479   -2.5816   -2.0313 N.am      2 UNK        -0.4546 
     35 C          27.2449   -2.6961   -0.8947 C.2       1 UNK         0.5154 
     36 O          26.9876   -1.7464   -0.1523 O.2       1 UNK        -0.5181 
     37 C          27.4512   -0.1615   -7.8142 C.2       5 UNK         0.5014 
     38 O          27.6736   -0.0424   -9.0189 O.2       5 UNK        -0.5248 
     39 N          27.5359    0.8482   -6.9344 N.am      6 UNK        -0.4434 
     40 CA         27.9404    2.2292   -7.2198 C.3       6 UNK         0.0363 
     41 CB         27.9071    3.0417   -5.9157 C.3       6 UNK        -0.1936 
     42 C          27.1334    2.9434   -8.3194 C.2       6 UNK         0.5081 
     43 O          27.6467    3.8914   -8.9136 O.2       6 UNK        -0.5248 
     44 N          25.9103    2.4705   -8.5975 N.am      7 UNK        -0.4718 
     45 CA         25.0890    2.9071   -9.7293 C.3       7 UNK         0.0273 
     46 CB         23.6672    2.3475   -9.5641 C.3       7 UNK        -0.1935 
     47 C          25.6729    2.5028  -11.0983 C.2       7 UNK         0.5018 
     48 O          25.3882    3.1779  -12.0885 O.2       7 UNK        -0.5186 
     49 N          26.4711    1.4263  -11.1324 N.am      8 UNK        -0.4240 
     50 CA         27.2008    0.9545  -12.3071 C.3       8 UNK         0.0235 
     51 CB         27.0407   -0.5703  -12.4399 C.3       8 UNK        -0.2000 
     52 C          28.6800    1.3517  -12.2039 C.2       8 UNK         0.4941 
     53 O          29.1841    2.0213  -13.1065 O.2       8 UNK        -0.5273 
     54 N          29.3434    0.9532  -11.1100 N.am      9 UNK        -0.4262 
     55 CA         30.7452    1.2454  -10.8165 C.3       9 UNK         0.0264 
     56 CB         31.6846    0.4384  -11.7354 C.3       9 UNK        -0.1955 
     57 C          31.0206    0.9191   -9.3450 C.2       9 UNK         0.5031 
     58 O          30.7823   -0.2135   -8.9204 O.2       9 UNK        -0.5390 
     59 N          31.5233    1.9073   -8.5972 N.am      10 UNK        -0.4204 
     60 CA         31.9277    1.7588   -7.1980 C.3       10 UNK         0.0237 
     61 CB         31.8448    3.1325   -6.5098 C.3       10 UNK        -0.1985 
     62 C          33.3531    1.1915   -7.0917 C.2       10 UNK         0.4970 
     63 O          34.1343    1.3032   -8.0406 O.2       10 UNK        -0.4914 
     64 N          33.6736    0.6292   -5.9211 N.am      11 UNK        -0.4285 
     65 CA         35.0231    0.1712   -5.5570 C.3       11 UNK         0.1007 
     66 C          36.0229    1.3517   -5.4079 C.2       11 UNK         0.5703 
     67 N          37.2857    1.1432   -5.7547 N.am      11 UNK        -0.7361 
     68 O          35.6735    2.4359   -4.9440 O.2       11 UNK        -0.4986 
     69 C69        35.0027   -0.6892   -4.2668 C.3       12 UNK        -0.0947 
     70 S70        34.1172   -2.2662   -4.4917 S.3       12 UNK        -0.2240 
     71 C71        32.5666   -1.9328   -3.6048 C.3       12 UNK         0.0194 
     72 H72        22.5316   -3.0852   -1.8861 H         1 UNK         0.0906 
     73 H73        23.2724   -4.5251   -2.5885 H         1 UNK         0.0906 
     74 H74        22.3042   -4.6576   -1.1192 H         1 UNK         0.0906 
     75 H75        25.4297   -4.8060   -2.0786 H         1 UNK         0.3140 
     76 H76        26.5483   -4.1179    0.5302 H         1 UNK         0.1085 
     77 H77        27.2197   -6.2112   -0.5710 H         1 UNK         0.0836 
     78 H78        27.7913   -5.3622   -1.9700 H         1 UNK         0.0836 
     79 H79        31.3769   -6.0850   -0.8622 H         1 UNK         0.0731 
     80 H80        30.0162   -6.8886   -1.5973 H         1 UNK         0.0731 
     81 H81        31.9896   -3.7085   -1.6054 H         1 UNK         0.1312 
     82 H82        31.0882   -2.8217   -5.7050 H         1 UNK         0.1406 
     83 H83        29.2345   -6.1741   -3.7792 H         1 UNK         0.1631 
     84 H84        29.1511   -5.9311   -6.2191 H         1 UNK         0.0717 
     85 H85        29.9131   -4.5903   -7.0308 H         1 UNK         0.0717 
     86 H86        28.6806   -1.8223   -5.9036 H         1 UNK         0.0934 
     87 H87        28.9615   -2.4260   -7.5184 H         1 UNK         0.0934 
     88 H88        26.5694   -2.0754   -8.1112 H         1 UNK         0.0739 
     89 H89        26.1978   -1.6009   -5.3162 H         1 UNK         0.3093 
     90 H90        22.9428   -0.1962   -5.5462 H         1 UNK         0.0818 
     91 H91        22.3406   -2.2239   -4.2577 H         1 UNK         0.0819 
     92 H92        22.5700   -2.6350   -5.9471 H         1 UNK         0.0819 
     93 H93        23.8192   -3.0363   -4.7781 H         1 UNK         0.0819 
     94 H94        24.6491   -1.1543   -3.3973 H         1 UNK         0.3041 
     95 H95        26.1419    2.0133   -2.7393 H         1 UNK         0.0784 
     96 H96        23.9280    2.0146   -1.5530 H         1 UNK         0.0793 
     97 H97        24.1479    0.3195   -1.1355 H         1 UNK         0.0793 
     98 H98        25.2395    1.5414   -0.4859 H         1 UNK         0.0793 
     99 H99        26.5606   -0.4132   -1.3901 H         1 UNK         0.3024 
    100 H100       29.1309   -1.7386   -3.4753 H         1 UNK         0.1171 
    101 H101       30.1955    0.0124   -2.1319 H         1 UNK         0.0786 
    102 H102       30.3398   -1.5258   -1.2961 H         1 UNK         0.0786 
    103 H103       29.1625   -0.3343   -0.7556 H         1 UNK         0.0786 
    104 H104       28.0957   -3.4259   -2.5662 H         1 UNK         0.2977 
    105 H105       27.4033    0.6258   -5.9483 H         1 UNK         0.3127 
    106 H106       28.9716    2.1900   -7.5676 H         1 UNK         0.0770 
    107 H107       26.9071    3.0600   -5.4806 H         1 UNK         0.0814 
    108 H108       28.2092    4.0757   -6.0877 H         1 UNK         0.0814 
    109 H109       28.5884    2.6268   -5.1726 H         1 UNK         0.0814 
    110 H110       25.5653    1.6878   -8.0580 H         1 UNK         0.2983 
    111 H111       25.0346    3.9978   -9.7065 H         1 UNK         0.0947 
    112 H112       23.0174    2.6881  -10.3714 H         1 UNK         0.0806 
    113 H113       23.2173    2.6744   -8.6264 H         1 UNK         0.0806 
    114 H114       23.6595    1.2567   -9.5775 H         1 UNK         0.0806 
    115 H115       26.6913    0.9560  -10.2577 H         1 UNK         0.3000 
    116 H116       26.7950    1.4111  -13.2125 H         1 UNK         0.0850 
    117 H117       27.5945   -0.9464  -13.3011 H         1 UNK         0.0810 
    118 H118       25.9953   -0.8442  -12.5822 H         1 UNK         0.0810 
    119 H119       27.4056   -1.1009  -11.5596 H         1 UNK         0.0810 
    120 H120       28.8479    0.4364  -10.3831 H         1 UNK         0.3040 
    121 H121       30.9163    2.3109  -10.9839 H         1 UNK         0.0766 
    122 H122       32.7292    0.6122  -11.4737 H         1 UNK         0.0812 
    123 H123       31.5651    0.7185  -12.7818 H         1 UNK         0.0812 
    124 H124       31.5013   -0.6337  -11.6527 H         1 UNK         0.0812 
    125 H125       31.7464    2.7886   -9.0370 H         1 UNK         0.3205 
    126 H126       31.2388    1.0745   -6.6965 H         1 UNK         0.0754 
    127 H127       32.0829    3.0559   -5.4480 H         1 UNK         0.0769 
    128 H128       30.8441    3.5577   -6.5841 H         1 UNK         0.0769 
    129 H129       32.5440    3.8463   -6.9477 H         1 UNK         0.0769 
    130 H130       32.9906    0.6177   -5.1803 H         1 UNK         0.2981 
    131 H131       35.3809   -0.4575   -6.3752 H         1 UNK         0.0541 
    132 H132       37.5857    0.2541   -6.1235 H         1 UNK         0.3459 
    133 H133       37.9521    1.8925   -5.6507 H         1 UNK         0.3459 
    134 H134       34.5719   -0.1315   -3.4331 H         1 UNK         0.0612 
    135 H135       36.0203   -0.9435   -3.9637 H         1 UNK         0.0612 
    136 H136       32.0661   -1.0724   -4.0504 H         1 UNK         0.0624 
    137 H137       32.7923   -1.6627   -2.5719 H         1 UNK         0.0624 
@<TRIPOS>BOND
     1    1    2 1    
     2    1   72 1    
     3    1   73 1    
     4    1   74 1    
     5    2    3 2    
     6    2    4 am   BACKBONE|DICT|INTERRES
     7    4    5 1    
     8    4   75 1    
     9    5    6 1    
    10    5   35 1    
    11    5   76 1    
    12    6    7 1    
    13    6   77 1    
    14    6   78 1    
    15    7    8 1    
    16    8    9 1    
    17    8   79 1    
    18    8   80 1    
    19    9   10 ar   
    20    9   14 ar   
    21   10   11 ar   
    22   10   81 1    
    23   11   12 ar   
    24   11   71 1    
    25   12   13 ar   
    26   12   82 1    
    27   13   14 ar   
    28   13   15 1    
    29   14   83 1    
    30   15   16 1    
    31   15   84 1    
    32   15   85 1    
    33   16   17 1    
    34   17   18 1    
    35   17   86 1    
    36   17   87 1    
    37   18   19 1    
    38   18   37 1    
    39   18   88 1    
    40   19   20 am   BACKBONE|DICT|INTERRES
    41   19   89 1    
    42   20   21 2    
    43   20   22 1    
    44   22   23 1    
    45   22   24 1    
    46   22   90 1    
    47   23   91 1    
    48   23   92 1    
    49   23   93 1    
    50   24   25 am   BACKBONE|DICT|INTERRES
    51   24   94 1    
    52   25   26 2    
    53   25   27 1    
    54   27   28 1    
    55   27   29 1    
    56   27   95 1    
    57   28   96 1    
    58   28   97 1    
    59   28   98 1    
    60   29   30 am   BACKBONE|DICT|INTERRES
    61   29   99 1    
    62   30   31 2    
    63   30   32 1    
    64   32   33 1    
    65   32   34 1    
    66   32  100 1    
    67   33  101 1    
    68   33  102 1    
    69   33  103 1    
    70   34   35 am   BACKBONE|DICT|INTERRES
    71   34  104 1    
    72   35   36 2    
    73   37   38 2    
    74   37   39 am   BACKBONE|DICT|INTERRES
    75   39   40 1    
    76   39  105 1    
    77   40   41 1    
    78   40   42 1    
    79   40  106 1    
    80   41  107 1    
    81   41  108 1    
    82   41  109 1    
    83   42   43 2    
    84   42   44 am   BACKBONE|DICT|INTERRES
    85   44   45 1    
    86   44  110 1    
    87   45   46 1    
    88   45   47 1    
    89   45  111 1    
    90   46  112 1    
    91   46  113 1    
    92   46  114 1    
    93   47   48 2    
    94   47   49 am   BACKBONE|DICT|INTERRES
    95   49   50 1    
    96   49  115 1    
    97   50   51 1    
    98   50   52 1    
    99   50  116 1    
   100   51  117 1    
   101   51  118 1    
   102   51  119 1    
   103   52   53 2    
   104   52   54 am   BACKBONE|DICT|INTERRES
   105   54   55 1    
   106   54  120 1    
   107   55   56 1    
   108   55   57 1    
   109   55  121 1    
   110   56  122 1    
   111   56  123 1    
   112   56  124 1    
   113   57   58 2    
   114   57   59 am   BACKBONE|DICT|INTERRES
   115   59   60 1    
   116   59  125 1    
   117   60   61 1    
   118   60   62 1    
   119   60  126 1    
   120   61  127 1    
   121   61  128 1    
   122   61  129 1    
   123   62   63 2    
   124   62   64 am   BACKBONE|DICT|INTERRES
   125   64   65 1    
   126   64  130 1    
   127   65   66 1    
   128   65   69 1    
   129   65  131 1    
   130   66   67 am   BACKBONE|DICT|INTERRES
   131   66   68 2    
   132   67  132 1    
   133   67  133 1    
   134   69   70 1    
   135   69  134 1    
   136   69  135 1    
   137   70   71 1    
   138   71  136 1    
   139   71  137 1    
@<TRIPOS>SUBSTRUCTURE
     1 UNK         1 GROUP             0       ****    0 ROOT    
