@<TRIPOS>MOLECULE
3R137
137   139    1
SMALL
USER_CHARGES


@<TRIPOS>ATOM
      1 CA         26.2498   -0.5807    2.5943 C.3       0 UNK        -0.2020 
      2 C          26.7996   -0.0685    1.2714 C.2       0 UNK         0.4855 
      3 O          26.6776    1.1213    0.9800 O.2       0 UNK        -0.5197 
      4 N          27.4075   -0.9577    0.4746 N.am      1 UNK        -0.4892 
      5 CA         27.9802   -0.6612   -0.8459 C.3       1 UNK         0.0835 
      6 C6         28.8666   -1.8308   -1.3473 C.3       12 UNK        -0.0855 
      7 S7         30.5889   -1.6395   -0.7684 S.3       12 UNK        -0.2931 
      8 C8         31.2730   -3.3149   -0.9802 C.3       12 UNK         0.0378 
      9 C9         31.2366   -3.7632   -2.4335 C.ar      12 UNK        -0.0802 
     10 C10        32.2581   -3.4073   -3.3214 C.ar      12 UNK        -0.0944 
     11 C11        32.1960   -3.7953   -4.6656 C.ar      12 UNK        -0.0787 
     12 C12        31.1100   -4.5563   -5.1124 C.ar      12 UNK        -0.0862 
     13 C13        30.0821   -4.9072   -4.2327 C.ar      12 UNK        -0.0733 
     14 C14        30.1594   -4.5221   -2.8939 C.ar      12 UNK        -0.0832 
     15 C15        28.8632   -5.6720   -4.7161 C.3       12 UNK         0.0240 
     16 S16        27.4992   -4.5260   -5.0830 S.3       12 UNK        -0.2522 
     17 C17        27.8206   -4.1774   -6.8456 C.3       12 UNK        -0.0967 
     18 CA         27.0988   -2.9254   -7.4140 C.3       5 UNK         0.0660 
     19 N          25.6981   -2.8177   -7.0328 N.am      5 UNK        -0.4015 
     20 C          24.6848   -3.4650   -7.6238 C.2       4 UNK         0.4946 
     21 O          24.8322   -4.2799   -8.5363 O.2       4 UNK        -0.5353 
     22 CA         23.2565   -3.1498   -7.1315 C.3       4 UNK         0.0277 
     23 CB         22.7669   -4.2454   -6.1702 C.3       4 UNK        -0.1981 
     24 N          23.1586   -1.8504   -6.4645 N.am      4 UNK        -0.4209 
     25 C          23.3666   -0.6684   -7.0610 C.2       3 UNK         0.4942 
     26 O          23.4302   -0.5274   -8.2819 O.2       3 UNK        -0.5208 
     27 CA         23.5976    0.5542   -6.1528 C.3       3 UNK         0.0250 
     28 CB         22.5002    1.6109   -6.3598 C.3       3 UNK        -0.1990 
     29 N          23.7145    0.2560   -4.7164 N.am      3 UNK        -0.4232 
     30 C          24.6898   -0.4557   -4.1302 C.2       2 UNK         0.4993 
     31 O          25.6091   -0.9926   -4.7517 O.2       2 UNK        -0.5286 
     32 CA         24.5382   -0.6643   -2.6105 C.3       2 UNK         0.0209 
     33 CB         23.5198   -1.7852   -2.3377 C.3       2 UNK        -0.1931 
     34 N          25.7735   -0.9795   -1.8821 N.am      2 UNK        -0.4546 
     35 C          26.9018   -0.2546   -1.8753 C.2       1 UNK         0.5154 
     36 O          27.0920    0.7331   -2.5846 O.2       1 UNK        -0.5181 
     37 C          27.7884   -1.5751   -7.1622 C.2       5 UNK         0.5014 
     38 O          27.6243   -0.6768   -7.9882 O.2       5 UNK        -0.5248 
     39 N          28.5711   -1.4562   -6.0799 N.am      6 UNK        -0.4434 
     40 CA         29.5829   -0.4118   -5.8594 C.3       6 UNK         0.0363 
     41 CB         30.1946   -0.5353   -4.4607 C.3       6 UNK        -0.1936 
     42 C          29.1622    1.0418   -6.1099 C.2       6 UNK         0.5081 
     43 O          29.9273    1.7668   -6.7443 O.2       6 UNK        -0.5248 
     44 N          27.9711    1.4498   -5.6516 N.am      7 UNK        -0.4718 
     45 CA         27.4774    2.8211   -5.8427 C.3       7 UNK         0.0273 
     46 CB         26.3023    3.1065   -4.8943 C.3       7 UNK        -0.1935 
     47 C          27.1288    3.1711   -7.3038 C.2       7 UNK         0.5018 
     48 O          27.0455    4.3580   -7.6226 O.2       7 UNK        -0.5186 
     49 N          26.9565    2.1568   -8.1626 N.am      8 UNK        -0.4240 
     50 CA         26.8027    2.3101   -9.6095 C.3       8 UNK         0.0235 
     51 CB         25.6716    1.3922  -10.1014 C.3       8 UNK        -0.2000 
     52 C          28.1170    1.9922  -10.3421 C.2       8 UNK         0.4941 
     53 O          28.4787    2.7147  -11.2712 O.2       8 UNK        -0.5273 
     54 N          28.8009    0.9168   -9.9249 N.am      9 UNK        -0.4262 
     55 CA         30.0222    0.3973  -10.5468 C.3       9 UNK         0.0264 
     56 CB         30.2570   -1.0446  -10.0647 C.3       9 UNK        -0.1955 
     57 C          31.2785    1.2489  -10.2954 C.2       9 UNK         0.5031 
     58 O          32.1963    1.2024  -11.1156 O.2       9 UNK        -0.5390 
     59 N          31.3150    1.9776   -9.1692 N.am      10 UNK        -0.4204 
     60 CA         32.4276    2.7982   -8.6719 C.3       10 UNK         0.0237 
     61 CB         32.7371    3.9669   -9.6326 C.3       10 UNK        -0.1985 
     62 C          33.6796    1.9793   -8.2907 C.2       10 UNK         0.4970 
     63 O          34.7897    2.5132   -8.3259 O.2       10 UNK        -0.4914 
     64 N          33.4842    0.7076   -7.9147 N.am      11 UNK        -0.4285 
     65 CA         34.5406   -0.2108   -7.4574 C.3       11 UNK         0.1007 
     66 C          35.0208    0.0183   -5.9933 C.2       11 UNK         0.5703 
     67 N          34.3766    0.8714   -5.2049 N.am      11 UNK        -0.7361 
     68 O          36.0064   -0.5812   -5.5704 O.2       11 UNK        -0.4986 
     69 C69        34.1708   -1.6934   -7.7357 C.3       12 UNK        -0.0947 
     70 S70        32.6390   -2.2397   -6.9086 S.3       12 UNK        -0.2240 
     71 C71        33.2869   -3.3759   -5.6417 C.3       12 UNK         0.0194 
     72 H72        26.7160   -0.0508    3.4245 H         1 UNK         0.0906 
     73 H73        25.1743   -0.4121    2.6437 H         1 UNK         0.0906 
     74 H74        26.4321   -1.6468    2.7282 H         1 UNK         0.0906 
     75 H75        27.4978   -1.9141    0.7871 H         1 UNK         0.3140 
     76 H76        28.6080    0.2261   -0.7307 H         1 UNK         0.1085 
     77 H77        28.4708   -2.7902   -1.0102 H         1 UNK         0.0836 
     78 H78        28.8807   -1.8971   -2.4346 H         1 UNK         0.0836 
     79 H79        32.3022   -3.3247   -0.6185 H         1 UNK         0.0731 
     80 H80        30.7224   -4.0135   -0.3481 H         1 UNK         0.0731 
     81 H81        33.0869   -2.8083   -2.9694 H         1 UNK         0.1312 
     82 H82        31.0559   -4.8495   -6.1518 H         1 UNK         0.1406 
     83 H83        29.3610   -4.7911   -2.2156 H         1 UNK         0.1631 
     84 H84        28.5379   -6.3718   -3.9448 H         1 UNK         0.0717 
     85 H85        29.1009   -6.2756   -5.5935 H         1 UNK         0.0717 
     86 H86        28.8950   -4.1130   -7.0256 H         1 UNK         0.0934 
     87 H87        27.4892   -5.0541   -7.4045 H         1 UNK         0.0934 
     88 H88        27.1280   -3.0305   -8.5012 H         1 UNK         0.0739 
     89 H89        25.5122   -2.1649   -6.2747 H         1 UNK         0.3093 
     90 H90        22.6014   -3.1337   -8.0052 H         1 UNK         0.0818 
     91 H91        21.7369   -4.0708   -5.8585 H         1 UNK         0.0819 
     92 H92        22.7970   -5.2250   -6.6494 H         1 UNK         0.0819 
     93 H93        23.3864   -4.3030   -5.2741 H         1 UNK         0.0819 
     94 H94        23.1020   -1.8635   -5.4575 H         1 UNK         0.3041 
     95 H95        24.5458    0.9815   -6.4828 H         1 UNK         0.0784 
     96 H96        22.4156    1.8879   -7.4118 H         1 UNK         0.0793 
     97 H97        21.5236    1.2463   -6.0393 H         1 UNK         0.0793 
     98 H98        22.7187    2.5242   -5.8061 H         1 UNK         0.0793 
     99 H99        22.9795    0.6307   -4.1328 H         1 UNK         0.3024 
    100 H100       24.1581    0.2680   -2.1871 H         1 UNK         0.1171 
    101 H101       22.5588   -1.5774   -2.8103 H         1 UNK         0.0786 
    102 H102       23.3290   -1.8977   -1.2701 H         1 UNK         0.0786 
    103 H103       23.8697   -2.7461   -2.7183 H         1 UNK         0.0786 
    104 H104       25.7302   -1.7733   -1.2608 H         1 UNK         0.2977 
    105 H105       28.5830   -2.2350   -5.4348 H         1 UNK         0.3127 
    106 H106       30.3704   -0.6239   -6.5803 H         1 UNK         0.0770 
    107 H107       29.5206   -0.1532   -3.6951 H         1 UNK         0.0814 
    108 H108       31.1182    0.0405   -4.3897 H         1 UNK         0.0814 
    109 H109       30.4403   -1.5671   -4.2220 H         1 UNK         0.0814 
    110 H110       27.3933    0.8047   -5.1251 H         1 UNK         0.2983 
    111 H111       28.2858    3.4991   -5.5591 H         1 UNK         0.0947 
    112 H112       25.9092    4.1125   -5.0472 H         1 UNK         0.0806 
    113 H113       26.6146    3.0418   -3.8523 H         1 UNK         0.0806 
    114 H114       25.4797    2.4121   -5.0371 H         1 UNK         0.0806 
    115 H115       27.0793    1.2078   -7.8220 H         1 UNK         0.3000 
    116 H116       26.5275    3.3382   -9.8548 H         1 UNK         0.0850 
    117 H117       25.5404    1.4765  -11.1809 H         1 UNK         0.0810 
    118 H118       24.7209    1.6559   -9.6376 H         1 UNK         0.0810 
    119 H119       25.8688    0.3431   -9.8761 H         1 UNK         0.0810 
    120 H120       28.3997    0.3520   -9.1767 H         1 UNK         0.3040 
    121 H121       29.8605    0.3705  -11.6265 H         1 UNK         0.0766 
    122 H122       31.1404   -1.4771  -10.5368 H         1 UNK         0.0812 
    123 H123       29.4117   -1.6877  -10.3103 H         1 UNK         0.0812 
    124 H124       30.4100   -1.0911   -8.9865 H         1 UNK         0.0812 
    125 H125       30.5334    1.9045   -8.5203 H         1 UNK         0.3205 
    126 H126       32.0722    3.2368   -7.7385 H         1 UNK         0.0754 
    127 H127       33.4400    4.6687   -9.1820 H         1 UNK         0.0769 
    128 H128       31.8348    4.5272   -9.8778 H         1 UNK         0.0769 
    129 H129       33.1807    3.6195  -10.5661 H         1 UNK         0.0769 
    130 H130       32.5442    0.3437   -7.8920 H         1 UNK         0.2981 
    131 H131       35.4205   -0.0040   -8.0694 H         1 UNK         0.0541 
    132 H132       33.5706    1.3711   -5.5416 H         1 UNK         0.3459 
    133 H133       34.7037    1.0137   -4.2628 H         1 UNK         0.3459 
    134 H134       34.9949   -2.3555   -7.4640 H         1 UNK         0.0612 
    135 H135       34.0293   -1.8333   -8.8084 H         1 UNK         0.0612 
    136 H136       33.7027   -4.2598   -6.1271 H         1 UNK         0.0624 
    137 H137       34.1089   -2.8916   -5.1123 H         1 UNK         0.0624 
@<TRIPOS>BOND
     1    1    2 1    
     2    1   72 1    
     3    1   73 1    
     4    1   74 1    
     5    2    3 2    
     6    2    4 am   BACKBONE|DICT|INTERRES
     7    4    5 1    
     8    4   75 1    
     9    5    6 1    
    10    5   35 1    
    11    5   76 1    
    12    6    7 1    
    13    6   77 1    
    14    6   78 1    
    15    7    8 1    
    16    8    9 1    
    17    8   79 1    
    18    8   80 1    
    19    9   10 ar   
    20    9   14 ar   
    21   10   11 ar   
    22   10   81 1    
    23   11   12 ar   
    24   11   71 1    
    25   12   13 ar   
    26   12   82 1    
    27   13   14 ar   
    28   13   15 1    
    29   14   83 1    
    30   15   16 1    
    31   15   84 1    
    32   15   85 1    
    33   16   17 1    
    34   17   18 1    
    35   17   86 1    
    36   17   87 1    
    37   18   19 1    
    38   18   37 1    
    39   18   88 1    
    40   19   20 am   BACKBONE|DICT|INTERRES
    41   19   89 1    
    42   20   21 2    
    43   20   22 1    
    44   22   23 1    
    45   22   24 1    
    46   22   90 1    
    47   23   91 1    
    48   23   92 1    
    49   23   93 1    
    50   24   25 am   BACKBONE|DICT|INTERRES
    51   24   94 1    
    52   25   26 2    
    53   25   27 1    
    54   27   28 1    
    55   27   29 1    
    56   27   95 1    
    57   28   96 1    
    58   28   97 1    
    59   28   98 1    
    60   29   30 am   BACKBONE|DICT|INTERRES
    61   29   99 1    
    62   30   31 2    
    63   30   32 1    
    64   32   33 1    
    65   32   34 1    
    66   32  100 1    
    67   33  101 1    
    68   33  102 1    
    69   33  103 1    
    70   34   35 am   BACKBONE|DICT|INTERRES
    71   34  104 1    
    72   35   36 2    
    73   37   38 2    
    74   37   39 am   BACKBONE|DICT|INTERRES
    75   39   40 1    
    76   39  105 1    
    77   40   41 1    
    78   40   42 1    
    79   40  106 1    
    80   41  107 1    
    81   41  108 1    
    82   41  109 1    
    83   42   43 2    
    84   42   44 am   BACKBONE|DICT|INTERRES
    85   44   45 1    
    86   44  110 1    
    87   45   46 1    
    88   45   47 1    
    89   45  111 1    
    90   46  112 1    
    91   46  113 1    
    92   46  114 1    
    93   47   48 2    
    94   47   49 am   BACKBONE|DICT|INTERRES
    95   49   50 1    
    96   49  115 1    
    97   50   51 1    
    98   50   52 1    
    99   50  116 1    
   100   51  117 1    
   101   51  118 1    
   102   51  119 1    
   103   52   53 2    
   104   52   54 am   BACKBONE|DICT|INTERRES
   105   54   55 1    
   106   54  120 1    
   107   55   56 1    
   108   55   57 1    
   109   55  121 1    
   110   56  122 1    
   111   56  123 1    
   112   56  124 1    
   113   57   58 2    
   114   57   59 am   BACKBONE|DICT|INTERRES
   115   59   60 1    
   116   59  125 1    
   117   60   61 1    
   118   60   62 1    
   119   60  126 1    
   120   61  127 1    
   121   61  128 1    
   122   61  129 1    
   123   62   63 2    
   124   62   64 am   BACKBONE|DICT|INTERRES
   125   64   65 1    
   126   64  130 1    
   127   65   66 1    
   128   65   69 1    
   129   65  131 1    
   130   66   67 am   BACKBONE|DICT|INTERRES
   131   66   68 2    
   132   67  132 1    
   133   67  133 1    
   134   69   70 1    
   135   69  134 1    
   136   69  135 1    
   137   70   71 1    
   138   71  136 1    
   139   71  137 1    
@<TRIPOS>SUBSTRUCTURE
     1 UNK         1 GROUP             0       ****    0 ROOT    
