@<TRIPOS>MOLECULE
3R137
137   139    1
SMALL
USER_CHARGES


@<TRIPOS>ATOM
      1 CA         26.8919   -6.7829    0.4755 C.3       0 UNK        -0.2020 
      2 C          26.8527   -5.6485   -0.5383 C.2       0 UNK         0.4855 
      3 O          26.4088   -4.5470   -0.2029 O.2       0 UNK        -0.5197 
      4 N          27.3180   -5.9126   -1.7675 N.am      1 UNK        -0.4892 
      5 CA         27.3074   -4.9768   -2.8977 C.3       1 UNK         0.0835 
      6 C6         28.7056   -4.9002   -3.5780 C.3       12 UNK        -0.0855 
      7 S7         29.1072   -3.2017   -4.1141 S.3       12 UNK        -0.2931 
      8 C8         30.2757   -2.7363   -2.7969 C.3       12 UNK         0.0378 
      9 C9         30.6372   -1.2603   -2.8440 C.ar      12 UNK        -0.0802 
     10 C10        31.5350   -0.7878   -3.8046 C.ar      12 UNK        -0.0944 
     11 C11        31.9031    0.5603   -3.8325 C.ar      12 UNK        -0.0787 
     12 C12        31.3654    1.4405   -2.8898 C.ar      12 UNK        -0.0862 
     13 C13        30.4559    0.9822   -1.9309 C.ar      12 UNK        -0.0733 
     14 C14        30.0990   -0.3700   -1.9095 C.ar      12 UNK        -0.0832 
     15 C15        29.8424    1.9524   -0.9310 C.3       12 UNK         0.0240 
     16 S16        28.0956    2.3074   -1.3127 S.3       12 UNK        -0.2522 
     17 C17        28.2135    2.9973   -2.9985 C.3       12 UNK        -0.0967 
     18 CA         27.8773    1.9300   -4.0785 C.3       5 UNK         0.0660 
     19 N          26.4957    1.4420   -3.9811 N.am      5 UNK        -0.4015 
     20 C          25.3677    2.1066   -4.2619 C.2       4 UNK         0.4946 
     21 O          25.3345    3.1911   -4.8480 O.2       4 UNK        -0.5353 
     22 CA         24.0533    1.4509   -3.7889 C.3       4 UNK         0.0277 
     23 CB         22.9038    2.4721   -3.6951 C.3       4 UNK        -0.1981 
     24 N          23.6181    0.3354   -4.6319 N.am      4 UNK        -0.4209 
     25 C          24.2319   -0.8483   -4.7446 C.2       3 UNK         0.4942 
     26 O          25.2731   -1.1404   -4.1468 O.2       3 UNK        -0.5208 
     27 CA         23.5683   -1.8799   -5.6709 C.3       3 UNK         0.0250 
     28 CB         23.3536   -1.3257   -7.0966 C.3       3 UNK        -0.1990 
     29 N          24.4297   -3.0561   -5.7003 N.am      3 UNK        -0.4232 
     30 C          24.1716   -4.2522   -6.2374 C.2       2 UNK         0.4993 
     31 O          23.1006   -4.5556   -6.7642 O.2       2 UNK        -0.5286 
     32 CA         25.3110   -5.2851   -6.1953 C.3       2 UNK         0.0209 
     33 CB         26.0221   -5.3509   -7.5575 C.3       2 UNK        -0.1931 
     34 N          26.3033   -5.0024   -5.1508 N.am      2 UNK        -0.4546 
     35 C          26.1562   -5.3419   -3.8631 C.2       1 UNK         0.5154 
     36 O          25.1572   -5.9273   -3.4356 O.2       1 UNK        -0.5181 
     37 C          28.2368    2.3794   -5.5071 C.2       5 UNK         0.5014 
     38 O          28.5912    1.5366   -6.3323 O.2       5 UNK        -0.5248 
     39 N          28.1074    3.6819   -5.7980 N.am      6 UNK        -0.4434 
     40 CA         28.3067    4.2718   -7.1254 C.3       6 UNK         0.0363 
     41 CB         28.2015    5.8013   -7.0212 C.3       6 UNK        -0.1936 
     42 C          27.3334    3.7353   -8.1924 C.2       6 UNK         0.5081 
     43 O          27.6741    3.7525   -9.3747 O.2       6 UNK        -0.5248 
     44 N          26.1612    3.2417   -7.7646 N.am      7 UNK        -0.4718 
     45 CA         25.2069    2.5348   -8.6222 C.3       7 UNK         0.0273 
     46 CB         23.8507    2.4426   -7.9062 C.3       7 UNK        -0.1935 
     47 C          25.6945    1.1338   -9.0392 C.2       7 UNK         0.5018 
     48 O          25.2879    0.6541  -10.0977 O.2       7 UNK        -0.5186 
     49 N          26.5429    0.5034   -8.2125 N.am      8 UNK        -0.4240 
     50 CA         27.1890   -0.7759   -8.5116 C.3       8 UNK         0.0235 
     51 CB         27.4735   -1.5434   -7.2080 C.3       8 UNK        -0.2000 
     52 C          28.4890   -0.5539   -9.2935 C.2       8 UNK         0.4941 
     53 O          28.7166   -1.2339  -10.2939 O.2       8 UNK        -0.5273 
     54 N          29.3151    0.3864   -8.8062 N.am      9 UNK        -0.4262 
     55 CA         30.6269    0.7848   -9.3331 C.3       9 UNK         0.0264 
     56 CB         30.4841    1.4526  -10.7167 C.3       9 UNK        -0.1955 
     57 C          31.6710   -0.3517   -9.3250 C.2       9 UNK         0.5031 
     58 O          32.6164   -0.3230  -10.1160 O.2       9 UNK        -0.5390 
     59 N          31.5108   -1.3154   -8.4042 N.am      10 UNK        -0.4204 
     60 CA         32.3587   -2.5055   -8.2486 C.3       10 UNK         0.0237 
     61 CB         31.7120   -3.4506   -7.2215 C.3       10 UNK        -0.1985 
     62 C          33.8244   -2.2057   -7.8754 C.2       10 UNK         0.4970 
     63 O          34.6820   -3.0706   -8.0571 O.2       10 UNK        -0.4914 
     64 N          34.0835   -0.9890   -7.3837 N.am      11 UNK        -0.4285 
     65 CA         35.4185   -0.4301   -7.1319 C.3       11 UNK         0.1007 
     66 C          36.2184   -0.0942   -8.4257 C.2       11 UNK         0.5703 
     67 N          35.6021   -0.0395   -9.6025 N.am      11 UNK        -0.7361 
     68 O          37.4272    0.1158   -8.3585 O.2       11 UNK        -0.4986 
     69 C69        35.3463    0.8077   -6.1969 C.3       12 UNK        -0.0947 
     70 S70        34.5551    0.4396   -4.5954 S.3       12 UNK        -0.2240 
     71 C71        32.8699    1.0600   -4.8929 C.3       12 UNK         0.0194 
     72 H72        25.8783   -7.0324    0.7960 H         1 UNK         0.0906 
     73 H73        27.3516   -7.6850    0.0640 H         1 UNK         0.0906 
     74 H74        27.4651   -6.4810    1.3552 H         1 UNK         0.0906 
     75 H75        27.6178   -6.8543   -1.9898 H         1 UNK         0.3140 
     76 H76        27.0569   -3.9816   -2.5224 H         1 UNK         0.1085 
     77 H77        29.4808   -5.2240   -2.8811 H         1 UNK         0.0836 
     78 H78        28.8003   -5.5861   -4.4222 H         1 UNK         0.0836 
     79 H79        29.8411   -2.9857   -1.8272 H         1 UNK         0.0731 
     80 H80        31.1824   -3.3361   -2.8912 H         1 UNK         0.0731 
     81 H81        31.9583   -1.4723   -4.5256 H         1 UNK         0.1312 
     82 H82        31.6457    2.4848   -2.9101 H         1 UNK         0.1406 
     83 H83        29.3958   -0.7244   -1.1677 H         1 UNK         0.1631 
     84 H84        30.4016    2.8890   -0.9032 H         1 UNK         0.0717 
     85 H85        29.9069    1.5285    0.0721 H         1 UNK         0.0717 
     86 H86        27.5287    3.8449   -3.0590 H         1 UNK         0.0934 
     87 H87        29.2148    3.4064   -3.1450 H         1 UNK         0.0934 
     88 H88        28.5035    1.0567   -3.8942 H         1 UNK         0.0739 
     89 H89        26.3907    0.4964   -3.6280 H         1 UNK         0.3093 
     90 H90        24.2301    1.0642   -2.7826 H         1 UNK         0.0818 
     91 H91        22.0096    2.0266   -3.2589 H         1 UNK         0.0819 
     92 H92        23.1832    3.3165   -3.0633 H         1 UNK         0.0819 
     93 H93        22.6370    2.8737   -4.6737 H         1 UNK         0.0819 
     94 H94        22.7699    0.4858   -5.1581 H         1 UNK         0.3041 
     95 H95        22.6079   -2.1607   -5.2345 H         1 UNK         0.0784 
     96 H96        22.7146   -0.4427   -7.0975 H         1 UNK         0.0793 
     97 H97        24.2972   -1.0513   -7.5650 H         1 UNK         0.0793 
     98 H98        22.8690   -2.0574   -7.7426 H         1 UNK         0.0793 
     99 H99        25.3081   -2.9118   -5.2163 H         1 UNK         0.3024 
    100 H100       24.8579   -6.2605   -6.0012 H         1 UNK         0.1171 
    101 H101       25.3195   -5.6119   -8.3503 H         1 UNK         0.0786 
    102 H102       26.8065   -6.1080   -7.5607 H         1 UNK         0.0786 
    103 H103       26.4735   -4.3962   -7.8273 H         1 UNK         0.0786 
    104 H104       27.1472   -4.5200   -5.4299 H         1 UNK         0.2977 
    105 H105       27.7379    4.2948   -5.0854 H         1 UNK         0.3127 
    106 H106       29.3172    4.0172   -7.4521 H         1 UNK         0.0770 
    107 H107       27.2151    6.1153   -6.6773 H         1 UNK         0.0814 
    108 H108       28.3728    6.2706   -7.9911 H         1 UNK         0.0814 
    109 H109       28.9437    6.2054   -6.3326 H         1 UNK         0.0814 
    110 H110       25.9406    3.2947   -6.7736 H         1 UNK         0.2983 
    111 H111       25.0709    3.1187   -9.5354 H         1 UNK         0.0947 
    112 H112       23.1071    1.9556   -8.5386 H         1 UNK         0.0806 
    113 H113       23.4660    3.4311   -7.6545 H         1 UNK         0.0806 
    114 H114       23.9226    1.8676   -6.9845 H         1 UNK         0.0806 
    115 H115       26.8806    0.9973   -7.3956 H         1 UNK         0.3000 
    116 H116       26.5220   -1.3871   -9.1241 H         1 UNK         0.0850 
    117 H117       27.9392   -2.5072   -7.4163 H         1 UNK         0.0810 
    118 H118       28.1439   -1.0030   -6.5399 H         1 UNK         0.0810 
    119 H119       26.5564   -1.7367   -6.6588 H         1 UNK         0.0810 
    120 H120       29.0349    0.8552   -7.9444 H         1 UNK         0.3040 
    121 H121       31.0053    1.5412   -8.6439 H         1 UNK         0.0766 
    122 H122       29.7526    2.2605  -10.6923 H         1 UNK         0.0812 
    123 H123       30.1713    0.7395  -11.4799 H         1 UNK         0.0812 
    124 H124       31.4307    1.8841  -11.0441 H         1 UNK         0.0812 
    125 H125       30.7084   -1.2511   -7.7951 H         1 UNK         0.3205 
    126 H126       32.3788   -3.0164   -9.2135 H         1 UNK         0.0754 
    127 H127       32.3007   -4.3613   -7.1019 H         1 UNK         0.0769 
    128 H128       30.7124   -3.7540   -7.5341 H         1 UNK         0.0769 
    129 H129       31.6275   -2.9877   -6.2388 H         1 UNK         0.0769 
    130 H130       33.3135   -0.3491   -7.2817 H         1 UNK         0.2981 
    131 H131       35.9955   -1.1990   -6.6147 H         1 UNK         0.0541 
    132 H132       36.1402    0.1758  -10.4265 H         1 UNK         0.3459 
    133 H133       34.6041   -0.2015   -9.6838 H         1 UNK         0.3459 
    134 H134       34.8202    1.6313   -6.6834 H         1 UNK         0.0612 
    135 H135       36.3505    1.1770   -5.9810 H         1 UNK         0.0612 
    136 H136       32.5148    0.7350   -5.8707 H         1 UNK         0.0624 
    137 H137       32.8917    2.1506   -4.9197 H         1 UNK         0.0624 
@<TRIPOS>BOND
     1    1    2 1    
     2    1   72 1    
     3    1   73 1    
     4    1   74 1    
     5    2    3 2    
     6    2    4 am   BACKBONE|DICT|INTERRES
     7    4    5 1    
     8    4   75 1    
     9    5    6 1    
    10    5   35 1    
    11    5   76 1    
    12    6    7 1    
    13    6   77 1    
    14    6   78 1    
    15    7    8 1    
    16    8    9 1    
    17    8   79 1    
    18    8   80 1    
    19    9   10 ar   
    20    9   14 ar   
    21   10   11 ar   
    22   10   81 1    
    23   11   12 ar   
    24   11   71 1    
    25   12   13 ar   
    26   12   82 1    
    27   13   14 ar   
    28   13   15 1    
    29   14   83 1    
    30   15   16 1    
    31   15   84 1    
    32   15   85 1    
    33   16   17 1    
    34   17   18 1    
    35   17   86 1    
    36   17   87 1    
    37   18   19 1    
    38   18   37 1    
    39   18   88 1    
    40   19   20 am   BACKBONE|DICT|INTERRES
    41   19   89 1    
    42   20   21 2    
    43   20   22 1    
    44   22   23 1    
    45   22   24 1    
    46   22   90 1    
    47   23   91 1    
    48   23   92 1    
    49   23   93 1    
    50   24   25 am   BACKBONE|DICT|INTERRES
    51   24   94 1    
    52   25   26 2    
    53   25   27 1    
    54   27   28 1    
    55   27   29 1    
    56   27   95 1    
    57   28   96 1    
    58   28   97 1    
    59   28   98 1    
    60   29   30 am   BACKBONE|DICT|INTERRES
    61   29   99 1    
    62   30   31 2    
    63   30   32 1    
    64   32   33 1    
    65   32   34 1    
    66   32  100 1    
    67   33  101 1    
    68   33  102 1    
    69   33  103 1    
    70   34   35 am   BACKBONE|DICT|INTERRES
    71   34  104 1    
    72   35   36 2    
    73   37   38 2    
    74   37   39 am   BACKBONE|DICT|INTERRES
    75   39   40 1    
    76   39  105 1    
    77   40   41 1    
    78   40   42 1    
    79   40  106 1    
    80   41  107 1    
    81   41  108 1    
    82   41  109 1    
    83   42   43 2    
    84   42   44 am   BACKBONE|DICT|INTERRES
    85   44   45 1    
    86   44  110 1    
    87   45   46 1    
    88   45   47 1    
    89   45  111 1    
    90   46  112 1    
    91   46  113 1    
    92   46  114 1    
    93   47   48 2    
    94   47   49 am   BACKBONE|DICT|INTERRES
    95   49   50 1    
    96   49  115 1    
    97   50   51 1    
    98   50   52 1    
    99   50  116 1    
   100   51  117 1    
   101   51  118 1    
   102   51  119 1    
   103   52   53 2    
   104   52   54 am   BACKBONE|DICT|INTERRES
   105   54   55 1    
   106   54  120 1    
   107   55   56 1    
   108   55   57 1    
   109   55  121 1    
   110   56  122 1    
   111   56  123 1    
   112   56  124 1    
   113   57   58 2    
   114   57   59 am   BACKBONE|DICT|INTERRES
   115   59   60 1    
   116   59  125 1    
   117   60   61 1    
   118   60   62 1    
   119   60  126 1    
   120   61  127 1    
   121   61  128 1    
   122   61  129 1    
   123   62   63 2    
   124   62   64 am   BACKBONE|DICT|INTERRES
   125   64   65 1    
   126   64  130 1    
   127   65   66 1    
   128   65   69 1    
   129   65  131 1    
   130   66   67 am   BACKBONE|DICT|INTERRES
   131   66   68 2    
   132   67  132 1    
   133   67  133 1    
   134   69   70 1    
   135   69  134 1    
   136   69  135 1    
   137   70   71 1    
   138   71  136 1    
   139   71  137 1    
@<TRIPOS>SUBSTRUCTURE
     1 UNK         1 GROUP             0       ****    0 ROOT    
