@<TRIPOS>MOLECULE
3R137
137   139    1
SMALL
USER_CHARGES


@<TRIPOS>ATOM
      1 CA         26.2346    0.0091    1.3946 C.3       0 UNK        -0.2020 
      2 C          27.1442   -0.6309    0.3569 C.2       0 UNK         0.4855 
      3 O          27.0553   -0.2970   -0.8235 O.2       0 UNK        -0.5197 
      4 N          28.0191   -1.5478    0.7867 N.am      1 UNK        -0.4892 
      5 CA         28.9619   -2.2804   -0.0642 C.3       1 UNK         0.0835 
      6 C6         30.1721   -2.8045    0.7504 C.3       12 UNK        -0.0855 
      7 S7         31.2361   -1.4305    1.3097 S.3       12 UNK        -0.2931 
      8 C8         32.6149   -1.5149    0.1184 C.3       12 UNK         0.0378 
      9 C9         32.1431   -1.3804   -1.3240 C.ar      12 UNK        -0.0802 
     10 C10        32.1042   -2.5032   -2.1579 C.ar      12 UNK        -0.0944 
     11 C11        31.6603   -2.3906   -3.4778 C.ar      12 UNK        -0.0787 
     12 C12        31.2602   -1.1446   -3.9660 C.ar      12 UNK        -0.0862 
     13 C13        31.3050   -0.0128   -3.1469 C.ar      12 UNK        -0.0733 
     14 C14        31.7467   -0.1358   -1.8256 C.ar      12 UNK        -0.0832 
     15 C15        30.9124    1.3460   -3.7070 C.3       12 UNK         0.0240 
     16 S16        29.2234    1.8535   -3.2528 S.3       12 UNK        -0.2522 
     17 C17        28.1766    0.5532   -3.9938 C.3       12 UNK        -0.0967 
     18 CA         27.9815    0.6608   -5.5282 C.3       5 UNK         0.0660 
     19 N          27.4153   -0.5755   -6.0823 N.am      5 UNK        -0.4015 
     20 C          27.3629   -0.8594   -7.3941 C.2       4 UNK         0.4946 
     21 O          27.8947   -0.1492   -8.2484 O.2       4 UNK        -0.5353 
     22 CA         26.5736   -2.1034   -7.8570 C.3       4 UNK         0.0277 
     23 CB         27.5094   -3.1908   -8.4051 C.3       4 UNK        -0.1981 
     24 N          25.7206   -2.6968   -6.8271 N.am      4 UNK        -0.4209 
     25 C          24.5934   -2.1532   -6.3490 C.2       3 UNK         0.4942 
     26 O          24.1174   -1.0962   -6.7609 O.2       3 UNK        -0.5208 
     27 CA         23.9213   -2.8834   -5.1690 C.3       3 UNK         0.0250 
     28 CB         22.8588   -3.8684   -5.6820 C.3       3 UNK        -0.1990 
     29 N          24.8612   -3.5910   -4.2840 N.am      3 UNK        -0.4232 
     30 C          25.8894   -3.0087   -3.6512 C.2       2 UNK         0.4993 
     31 O          26.1698   -1.8143   -3.7741 O.2       2 UNK        -0.5286 
     32 CA         26.7964   -3.9070   -2.8044 C.3       2 UNK         0.0209 
     33 CB         27.7444   -4.7213   -3.7069 C.3       2 UNK        -0.1931 
     34 N          27.5704   -3.0426   -1.9191 N.am      2 UNK        -0.4546 
     35 C          28.2310   -3.4086   -0.8183 C.2       1 UNK         0.5154 
     36 O          28.2552   -4.5629   -0.3856 O.2       1 UNK        -0.5181 
     37 C          27.1290    1.8858   -5.9279 C.2       5 UNK         0.5014 
     38 O          27.6829    2.9386   -6.2481 O.2       5 UNK        -0.5248 
     39 N          25.7982    1.7089   -5.9774 N.am      6 UNK        -0.4434 
     40 CA         24.8261    2.7325   -6.3759 C.3       6 UNK         0.0363 
     41 CB         23.4077    2.2443   -6.0404 C.3       6 UNK        -0.1936 
     42 C          24.9191    3.1510   -7.8562 C.2       6 UNK         0.5081 
     43 O          24.3885    4.2033   -8.2120 O.2       6 UNK        -0.5248 
     44 N          25.6029    2.3518   -8.6893 N.am      7 UNK        -0.4718 
     45 CA         25.9183    2.6822  -10.0823 C.3       7 UNK         0.0273 
     46 CB         26.2890    1.3937  -10.8359 C.3       7 UNK        -0.1935 
     47 C          27.0420    3.7297  -10.2193 C.2       7 UNK         0.5018 
     48 O          27.2296    4.2496  -11.3197 O.2       7 UNK        -0.5186 
     49 N          27.7609    4.0109   -9.1194 N.am      8 UNK        -0.4240 
     50 CA         28.8965    4.9297   -8.9957 C.3       8 UNK         0.0235 
     51 CB         28.4126    6.3896   -9.1378 C.3       8 UNK        -0.2000 
     52 C          30.0681    4.5902   -9.9484 C.2       8 UNK         0.4941 
     53 O          30.4308    5.4289  -10.7737 O.2       8 UNK        -0.5273 
     54 N          30.6736    3.3961   -9.8801 N.am      9 UNK        -0.4262 
     55 CA         30.4372    2.2571   -8.9939 C.3       9 UNK         0.0264 
     56 CB         30.9910    2.5321   -7.5819 C.3       9 UNK        -0.1955 
     57 C          31.1490    1.0419   -9.5989 C.2       9 UNK         0.5031 
     58 O          32.1042    1.2138  -10.3628 O.2       9 UNK        -0.5390 
     59 N          30.7010   -0.1551   -9.2160 N.am      10 UNK        -0.4204 
     60 CA         31.3248   -1.4362   -9.5361 C.3       10 UNK         0.0237 
     61 CB         30.7782   -1.9499  -10.8831 C.3       10 UNK        -0.1985 
     62 C          31.0597   -2.4197   -8.3865 C.2       10 UNK         0.4970 
     63 O          30.3702   -2.0649   -7.4279 O.2       10 UNK        -0.4914 
     64 N          31.5956   -3.6388   -8.5094 N.am      11 UNK        -0.4285 
     65 CA         31.3398   -4.7684   -7.5968 C.3       11 UNK         0.1007 
     66 C          30.8912   -6.0575   -8.3457 C.2       11 UNK         0.5703 
     67 N          30.5420   -5.9970   -9.6263 N.am      11 UNK        -0.7361 
     68 O          30.8365   -7.1333   -7.7546 O.2       11 UNK        -0.4986 
     69 C69        32.5208   -5.0348   -6.6177 C.3       12 UNK        -0.0947 
     70 S70        32.9702   -3.6007   -5.5847 S.3       12 UNK        -0.2240 
     71 C71        31.6047   -3.6097   -4.3827 C.3       12 UNK         0.0194 
     72 H72        26.3847    1.0883    1.4084 H         1 UNK         0.0906 
     73 H73        25.1910   -0.1865    1.1494 H         1 UNK         0.0906 
     74 H74        26.4256   -0.3728    2.3973 H         1 UNK         0.0906 
     75 H75        28.0432   -1.7896    1.7671 H         1 UNK         0.3140 
     76 H76        29.3464   -1.5950   -0.8237 H         1 UNK         0.1085 
     77 H77        30.7707   -3.5028    0.1631 H         1 UNK         0.0836 
     78 H78        29.8361   -3.3667    1.6236 H         1 UNK         0.0836 
     79 H79        33.1550   -2.4521    0.2626 H         1 UNK         0.0731 
     80 H80        33.3256   -0.7181    0.3427 H         1 UNK         0.0731 
     81 H81        32.4156   -3.4671   -1.7789 H         1 UNK         0.1312 
     82 H82        30.9231   -1.0586   -4.9907 H         1 UNK         0.1406 
     83 H83        31.7781    0.7360   -1.1858 H         1 UNK         0.1631 
     84 H84        31.0085    1.3498   -4.7907 H         1 UNK         0.0717 
     85 H85        31.6108    2.1015   -3.3442 H         1 UNK         0.0717 
     86 H86        28.6008   -0.4165   -3.7332 H         1 UNK         0.0934 
     87 H87        27.2105    0.5832   -3.4864 H         1 UNK         0.0934 
     88 H88        28.9646    0.7869   -5.9845 H         1 UNK         0.0739 
     89 H89        26.9521   -1.1864   -5.4150 H         1 UNK         0.3093 
     90 H90        25.9294   -1.7738   -8.6751 H         1 UNK         0.0818 
     91 H91        26.9475   -4.0199   -8.8353 H         1 UNK         0.0819 
     92 H92        28.1460   -2.7928   -9.1945 H         1 UNK         0.0819 
     93 H93        28.1593   -3.5929   -7.6275 H         1 UNK         0.0819 
     94 H94        26.0347   -3.5671   -6.4239 H         1 UNK         0.3041 
     95 H95        23.4193   -2.1229   -4.5669 H         1 UNK         0.0784 
     96 H96        23.3033   -4.6765   -6.2645 H         1 UNK         0.0793 
     97 H97        22.1362   -3.3629   -6.3245 H         1 UNK         0.0793 
     98 H98        22.2996   -4.3144   -4.8592 H         1 UNK         0.0793 
     99 H99        24.6984   -4.5790   -4.1489 H         1 UNK         0.3024 
    100 H100       26.1761   -4.5749   -2.2026 H         1 UNK         0.1171 
    101 H101       28.4244   -5.3395   -3.1207 H         1 UNK         0.0786 
    102 H102       27.1874   -5.3924   -4.3616 H         1 UNK         0.0786 
    103 H103       28.3481   -4.0713   -4.3414 H         1 UNK         0.0786 
    104 H104       27.4891   -2.0525   -2.1373 H         1 UNK         0.2977 
    105 H105       25.4209    0.7971   -5.7554 H         1 UNK         0.3127 
    106 H106       25.0273    3.6248   -5.7792 H         1 UNK         0.0770 
    107 H107       23.1315    1.3702   -6.6307 H         1 UNK         0.0814 
    108 H108       22.6699    3.0205   -6.2484 H         1 UNK         0.0814 
    109 H109       23.3131    1.9837   -4.9862 H         1 UNK         0.0814 
    110 H110       26.0168    1.5068   -8.3194 H         1 UNK         0.2983 
    111 H111       25.0234    3.1026  -10.5467 H         1 UNK         0.0947 
    112 H112       26.4035    1.5890  -11.9029 H         1 UNK         0.0806 
    113 H113       25.5189    0.6298  -10.7280 H         1 UNK         0.0806 
    114 H114       27.2321    0.9752  -10.4844 H         1 UNK         0.0806 
    115 H115       27.5241    3.5181   -8.2645 H         1 UNK         0.3000 
    116 H116       29.2716    4.8289   -7.9790 H         1 UNK         0.0850 
    117 H117       29.2285    7.0905   -8.9570 H         1 UNK         0.0810 
    118 H118       27.6259    6.6171   -8.4184 H         1 UNK         0.0810 
    119 H119       28.0228    6.5949  -10.1353 H         1 UNK         0.0810 
    120 H120       31.4125    3.1968  -10.5446 H         1 UNK         0.3040 
    121 H121       29.3749    2.0208   -8.9433 H         1 UNK         0.0766 
    122 H122       31.9851    2.9788   -7.6183 H         1 UNK         0.0812 
    123 H123       31.0796    1.6049   -7.0170 H         1 UNK         0.0812 
    124 H124       30.3458    3.1875   -7.0005 H         1 UNK         0.0812 
    125 H125       29.8996   -0.2222   -8.5908 H         1 UNK         0.3205 
    126 H126       32.4067   -1.3048   -9.6077 H         1 UNK         0.0754 
    127 H127       30.9815   -1.2397  -11.6849 H         1 UNK         0.0769 
    128 H128       29.6999   -2.1058  -10.8485 H         1 UNK         0.0769 
    129 H129       31.2407   -2.8935  -11.1730 H         1 UNK         0.0769 
    130 H130       32.1766   -3.8486   -9.3081 H         1 UNK         0.2981 
    131 H131       30.4654   -4.5309   -6.9906 H         1 UNK         0.0541 
    132 H132       30.5261   -5.1223  -10.1231 H         1 UNK         0.3459 
    133 H133       30.2491   -6.8423  -10.0908 H         1 UNK         0.3459 
    134 H134       33.4082   -5.3346   -7.1772 H         1 UNK         0.0612 
    135 H135       32.2904   -5.8651   -5.9476 H         1 UNK         0.0612 
    136 H136       30.6517   -3.6093   -4.9111 H         1 UNK         0.0624 
    137 H137       31.6391   -4.5306   -3.7987 H         1 UNK         0.0624 
@<TRIPOS>BOND
     1    1    2 1    
     2    1   72 1    
     3    1   73 1    
     4    1   74 1    
     5    2    3 2    
     6    2    4 am   BACKBONE|DICT|INTERRES
     7    4    5 1    
     8    4   75 1    
     9    5    6 1    
    10    5   35 1    
    11    5   76 1    
    12    6    7 1    
    13    6   77 1    
    14    6   78 1    
    15    7    8 1    
    16    8    9 1    
    17    8   79 1    
    18    8   80 1    
    19    9   10 ar   
    20    9   14 ar   
    21   10   11 ar   
    22   10   81 1    
    23   11   12 ar   
    24   11   71 1    
    25   12   13 ar   
    26   12   82 1    
    27   13   14 ar   
    28   13   15 1    
    29   14   83 1    
    30   15   16 1    
    31   15   84 1    
    32   15   85 1    
    33   16   17 1    
    34   17   18 1    
    35   17   86 1    
    36   17   87 1    
    37   18   19 1    
    38   18   37 1    
    39   18   88 1    
    40   19   20 am   BACKBONE|DICT|INTERRES
    41   19   89 1    
    42   20   21 2    
    43   20   22 1    
    44   22   23 1    
    45   22   24 1    
    46   22   90 1    
    47   23   91 1    
    48   23   92 1    
    49   23   93 1    
    50   24   25 am   BACKBONE|DICT|INTERRES
    51   24   94 1    
    52   25   26 2    
    53   25   27 1    
    54   27   28 1    
    55   27   29 1    
    56   27   95 1    
    57   28   96 1    
    58   28   97 1    
    59   28   98 1    
    60   29   30 am   BACKBONE|DICT|INTERRES
    61   29   99 1    
    62   30   31 2    
    63   30   32 1    
    64   32   33 1    
    65   32   34 1    
    66   32  100 1    
    67   33  101 1    
    68   33  102 1    
    69   33  103 1    
    70   34   35 am   BACKBONE|DICT|INTERRES
    71   34  104 1    
    72   35   36 2    
    73   37   38 2    
    74   37   39 am   BACKBONE|DICT|INTERRES
    75   39   40 1    
    76   39  105 1    
    77   40   41 1    
    78   40   42 1    
    79   40  106 1    
    80   41  107 1    
    81   41  108 1    
    82   41  109 1    
    83   42   43 2    
    84   42   44 am   BACKBONE|DICT|INTERRES
    85   44   45 1    
    86   44  110 1    
    87   45   46 1    
    88   45   47 1    
    89   45  111 1    
    90   46  112 1    
    91   46  113 1    
    92   46  114 1    
    93   47   48 2    
    94   47   49 am   BACKBONE|DICT|INTERRES
    95   49   50 1    
    96   49  115 1    
    97   50   51 1    
    98   50   52 1    
    99   50  116 1    
   100   51  117 1    
   101   51  118 1    
   102   51  119 1    
   103   52   53 2    
   104   52   54 am   BACKBONE|DICT|INTERRES
   105   54   55 1    
   106   54  120 1    
   107   55   56 1    
   108   55   57 1    
   109   55  121 1    
   110   56  122 1    
   111   56  123 1    
   112   56  124 1    
   113   57   58 2    
   114   57   59 am   BACKBONE|DICT|INTERRES
   115   59   60 1    
   116   59  125 1    
   117   60   61 1    
   118   60   62 1    
   119   60  126 1    
   120   61  127 1    
   121   61  128 1    
   122   61  129 1    
   123   62   63 2    
   124   62   64 am   BACKBONE|DICT|INTERRES
   125   64   65 1    
   126   64  130 1    
   127   65   66 1    
   128   65   69 1    
   129   65  131 1    
   130   66   67 am   BACKBONE|DICT|INTERRES
   131   66   68 2    
   132   67  132 1    
   133   67  133 1    
   134   69   70 1    
   135   69  134 1    
   136   69  135 1    
   137   70   71 1    
   138   71  136 1    
   139   71  137 1    
@<TRIPOS>SUBSTRUCTURE
     1 UNK         1 GROUP             0       ****    0 ROOT    
