@<TRIPOS>MOLECULE
3R137
137   139    1
SMALL
USER_CHARGES


@<TRIPOS>ATOM
      1 CA         25.5690   -6.2403    2.2301 C.3       0 UNK        -0.2020 
      2 C          26.1923   -5.4377    1.0978 C.2       0 UNK         0.4855 
      3 O          26.3969   -5.9778    0.0109 O.2       0 UNK        -0.5197 
      4 N          26.4950   -4.1552    1.3497 N.am      1 UNK        -0.4892 
      5 CA         27.0809   -3.1965    0.4000 C.3       1 UNK         0.0835 
      6 C6         28.5273   -3.5844   -0.0394 C.3       12 UNK        -0.0855 
      7 S7         29.7068   -2.1868    0.0007 S.3       12 UNK        -0.2931 
      8 C8         29.4585   -1.3333   -1.5913 C.3       12 UNK         0.0378 
      9 C9         30.1764   -2.0001   -2.7592 C.ar      12 UNK        -0.0802 
     10 C10        31.3763   -1.4675   -3.2413 C.ar      12 UNK        -0.0944 
     11 C11        32.0098   -2.0297   -4.3540 C.ar      12 UNK        -0.0787 
     12 C12        31.4501   -3.1558   -4.9683 C.ar      12 UNK        -0.0862 
     13 C13        30.2498   -3.6967   -4.4989 C.ar      12 UNK        -0.0733 
     14 C14        29.6164   -3.1076   -3.4015 C.ar      12 UNK        -0.0832 
     15 C15        29.6450   -4.9285   -5.1608 C.3       12 UNK         0.0240 
     16 S16        28.7525   -4.5411   -6.7020 S.3       12 UNK        -0.2522 
     17 C17        27.3127   -3.5912   -6.0960 C.3       12 UNK        -0.0967 
     18 CA         26.9744   -2.3489   -6.9580 C.3       5 UNK         0.0660 
     19 N          25.7388   -1.7087   -6.4980 N.am      5 UNK        -0.4015 
     20 C          25.0848   -0.7381   -7.1527 C.2       4 UNK         0.4946 
     21 O          25.4199   -0.3041   -8.2534 O.2       4 UNK        -0.5353 
     22 CA         23.8814   -0.1073   -6.4327 C.3       4 UNK         0.0277 
     23 CB         22.6113   -0.9406   -6.6649 C.3       4 UNK        -0.1981 
     24 N          24.0965    0.0706   -4.9937 N.am      4 UNK        -0.4209 
     25 C          25.0720    0.8015   -4.4395 C.2       3 UNK         0.4942 
     26 O          25.9048    1.4248   -5.0976 O.2       3 UNK        -0.5208 
     27 CA         25.1724    0.8195   -2.9031 C.3       3 UNK         0.0250 
     28 CB         24.3413    1.9736   -2.3112 C.3       3 UNK        -0.1990 
     29 N          24.8699   -0.4605   -2.2402 N.am      3 UNK        -0.4232 
     30 C          23.7103   -1.1277   -2.1520 C.2       2 UNK         0.4993 
     31 O          22.6706   -0.7489   -2.6924 O.2       2 UNK        -0.5286 
     32 CA         23.6826   -2.4424   -1.3431 C.3       2 UNK         0.0209 
     33 CB         23.4517   -3.6504   -2.2749 C.3       2 UNK        -0.1931 
     34 N          24.8297   -2.6835   -0.4470 N.am      2 UNK        -0.4546 
     35 C          26.1134   -2.9017   -0.7743 C.2       1 UNK         0.5154 
     36 O          26.5216   -2.8603   -1.9348 O.2       1 UNK        -0.5181 
     37 C          28.1378   -1.3367   -7.0455 C.2       5 UNK         0.5014 
     38 O          28.8205   -1.2941   -8.0699 O.2       5 UNK        -0.5248 
     39 N          28.3010   -0.5054   -6.0037 N.am      6 UNK        -0.4434 
     40 CA         29.3159    0.5502   -5.9337 C.3       6 UNK         0.0363 
     41 CB         29.2888    1.2162   -4.5490 C.3       6 UNK        -0.1936 
     42 C          29.1452    1.6104   -7.0310 C.2       6 UNK         0.5081 
     43 O          30.1416    2.0629   -7.5957 O.2       6 UNK        -0.5248 
     44 N          27.8871    1.9701   -7.3189 N.am      7 UNK        -0.4718 
     45 CA         27.5102    2.8720   -8.4049 C.3       7 UNK         0.0273 
     46 CB         26.0437    3.2998   -8.2341 C.3       7 UNK        -0.1935 
     47 C          27.7487    2.2495   -9.7903 C.2       7 UNK         0.5018 
     48 O          28.3488    2.9030  -10.6434 O.2       7 UNK        -0.5186 
     49 N          27.2925    1.0029   -9.9869 N.am      8 UNK        -0.4240 
     50 CA         27.4044    0.2602  -11.2464 C.3       8 UNK         0.0235 
     51 CB         26.5779   -1.0335  -11.1664 C.3       8 UNK        -0.2000 
     52 C          28.8542   -0.0514  -11.6478 C.2       8 UNK         0.4941 
     53 O          29.2113    0.1422  -12.8106 O.2       8 UNK        -0.5273 
     54 N          29.6652   -0.5128  -10.6861 N.am      9 UNK        -0.4262 
     55 CA         31.0886   -0.8019  -10.8843 C.3       9 UNK         0.0264 
     56 CB         31.5408   -1.8277   -9.8334 C.3       9 UNK        -0.1955 
     57 C          31.9776    0.4556  -10.8432 C.2       9 UNK         0.5031 
     58 O          33.1457    0.3685  -11.2236 O.2       9 UNK        -0.5390 
     59 N          31.4252    1.5850  -10.3729 N.am      10 UNK        -0.4204 
     60 CA         32.0572    2.8995  -10.1917 C.3       10 UNK         0.0237 
     61 CB         32.5200    3.4869  -11.5420 C.3       10 UNK        -0.1985 
     62 C          33.1669    2.9283   -9.1192 C.2       10 UNK         0.4970 
     63 O          33.9430    3.8847   -9.0765 O.2       10 UNK        -0.4914 
     64 N          33.2124    1.9026   -8.2620 N.am      11 UNK        -0.4285 
     65 CA         34.1080    1.7929   -7.1029 C.3       11 UNK         0.1007 
     66 C          33.5940    2.5364   -5.8363 C.2       11 UNK         0.5703 
     67 N          32.3520    3.0063   -5.7973 N.am      11 UNK        -0.7361 
     68 O          34.3461    2.7085   -4.8800 O.2       11 UNK        -0.4986 
     69 C69        34.4807    0.3132   -6.8162 C.3       12 UNK        -0.0947 
     70 S70        33.0259   -0.7620   -6.5801 S.3       12 UNK        -0.2240 
     71 C71        33.2868   -1.4072   -4.9009 C.3       12 UNK         0.0194 
     72 H72        26.1946   -7.1000    2.4687 H         1 UNK         0.0906 
     73 H73        25.4501   -5.6465    3.1362 H         1 UNK         0.0906 
     74 H74        24.5864   -6.6061    1.9334 H         1 UNK         0.0906 
     75 H75        26.3044   -3.7835    2.2711 H         1 UNK         0.3140 
     76 H76        27.1422   -2.2600    0.9571 H         1 UNK         0.1085 
     77 H77        28.9350   -4.3106    0.6656 H         1 UNK         0.0836 
     78 H78        28.5525   -4.1081   -0.9928 H         1 UNK         0.0836 
     79 H79        28.3986   -1.2242   -1.8106 H         1 UNK         0.0731 
     80 H80        29.8288   -0.3139   -1.4728 H         1 UNK         0.0731 
     81 H81        31.8046   -0.5965   -2.7644 H         1 UNK         0.1312 
     82 H82        31.9382   -3.5969   -5.8268 H         1 UNK         0.1406 
     83 H83        28.6772   -3.5110   -3.0566 H         1 UNK         0.1631 
     84 H84        30.4403   -5.6395   -5.3890 H         1 UNK         0.0717 
     85 H85        28.9697   -5.4426   -4.4748 H         1 UNK         0.0717 
     86 H86        26.4605   -4.2727   -6.0876 H         1 UNK         0.0934 
     87 H87        27.4609   -3.2984   -5.0573 H         1 UNK         0.0934 
     88 H88        26.7852   -2.6990   -7.9752 H         1 UNK         0.0739 
     89 H89        25.3842   -1.9973   -5.5987 H         1 UNK         0.3093 
     90 H90        23.7254    0.8834   -6.8647 H         1 UNK         0.0818 
     91 H91        21.7341   -0.4514   -6.2410 H         1 UNK         0.0819 
     92 H92        22.4223   -1.0749   -7.7310 H         1 UNK         0.0819 
     93 H93        22.6892   -1.9329   -6.2187 H         1 UNK         0.0819 
     94 H94        23.4302   -0.3627   -4.3582 H         1 UNK         0.3041 
     95 H95        26.2192    1.0234   -2.6712 H         1 UNK         0.0784 
     96 H96        24.6471    2.9302   -2.7374 H         1 UNK         0.0793 
     97 H97        23.2761    1.8568   -2.5127 H         1 UNK         0.0793 
     98 H98        24.4729    2.0436   -1.2315 H         1 UNK         0.0793 
     99 H99        25.6726   -0.9444   -1.8572 H         1 UNK         0.3024 
    100 H100       22.8111   -2.3633   -0.6908 H         1 UNK         0.1171 
    101 H101       23.3635   -4.5769   -1.7073 H         1 UNK         0.0786 
    102 H102       22.5300   -3.5332   -2.8466 H         1 UNK         0.0786 
    103 H103       24.2627   -3.7744   -2.9930 H         1 UNK         0.0786 
    104 H104       24.5986   -2.7183    0.5367 H         1 UNK         0.2977 
    105 H105       27.6627   -0.5689   -5.2260 H         1 UNK         0.3127 
    106 H106       30.2878    0.0745   -6.0692 H         1 UNK         0.0770 
    107 H107       28.3923    1.8178   -4.3996 H         1 UNK         0.0814 
    108 H108       30.1454    1.8779   -4.4220 H         1 UNK         0.0814 
    109 H109       29.3297    0.4813   -3.7503 H         1 UNK         0.0814 
    110 H110       27.1366    1.5865   -6.7530 H         1 UNK         0.2983 
    111 H111       28.1350    3.7650   -8.3311 H         1 UNK         0.0947 
    112 H112       25.7471    3.9974   -9.0184 H         1 UNK         0.0806 
    113 H113       25.8866    3.7994   -7.2779 H         1 UNK         0.0806 
    114 H114       25.3638    2.4486   -8.2795 H         1 UNK         0.0806 
    115 H115       26.7740    0.5465   -9.2386 H         1 UNK         0.3000 
    116 H116       26.9753    0.8853  -12.0324 H         1 UNK         0.0850 
    117 H117       26.6456   -1.6010  -12.0955 H         1 UNK         0.0810 
    118 H118       25.5231   -0.8188  -10.9944 H         1 UNK         0.0810 
    119 H119       26.9221   -1.6820  -10.3597 H         1 UNK         0.0810 
    120 H120       29.2883   -0.6886   -9.7542 H         1 UNK         0.3040 
    121 H121       31.2214   -1.2543  -11.8694 H         1 UNK         0.0766 
    122 H122       30.9963   -2.7663   -9.9369 H         1 UNK         0.0812 
    123 H123       31.3738   -1.4608   -8.8217 H         1 UNK         0.0812 
    124 H124       32.6034   -2.0547   -9.9298 H         1 UNK         0.0812 
    125 H125       30.4633    1.5348  -10.0630 H         1 UNK         0.3205 
    126 H126       31.2671    3.5480   -9.8098 H         1 UNK         0.0754 
    127 H127       32.8349    4.5252  -11.4308 H         1 UNK         0.0769 
    128 H128       31.7143    3.4719  -12.2761 H         1 UNK         0.0769 
    129 H129       33.3641    2.9355  -11.9570 H         1 UNK         0.0769 
    130 H130       32.5047    1.1865   -8.3340 H         1 UNK         0.2981 
    131 H131       35.0412    2.2953   -7.3640 H         1 UNK         0.0541 
    132 H132       31.7089    2.8256   -6.5597 H         1 UNK         0.3459 
    133 H133       32.0419    3.5052   -4.9798 H         1 UNK         0.3459 
    134 H134       35.1491    0.2394   -5.9566 H         1 UNK         0.0612 
    135 H135       35.0456   -0.0854   -7.6600 H         1 UNK         0.0612 
    136 H136       33.6246   -0.5961   -4.2537 H         1 UNK         0.0624 
    137 H137       34.0834   -2.1520   -4.9174 H         1 UNK         0.0624 
@<TRIPOS>BOND
     1    1    2 1    
     2    1   72 1    
     3    1   73 1    
     4    1   74 1    
     5    2    3 2    
     6    2    4 am   BACKBONE|DICT|INTERRES
     7    4    5 1    
     8    4   75 1    
     9    5    6 1    
    10    5   35 1    
    11    5   76 1    
    12    6    7 1    
    13    6   77 1    
    14    6   78 1    
    15    7    8 1    
    16    8    9 1    
    17    8   79 1    
    18    8   80 1    
    19    9   10 ar   
    20    9   14 ar   
    21   10   11 ar   
    22   10   81 1    
    23   11   12 ar   
    24   11   71 1    
    25   12   13 ar   
    26   12   82 1    
    27   13   14 ar   
    28   13   15 1    
    29   14   83 1    
    30   15   16 1    
    31   15   84 1    
    32   15   85 1    
    33   16   17 1    
    34   17   18 1    
    35   17   86 1    
    36   17   87 1    
    37   18   19 1    
    38   18   37 1    
    39   18   88 1    
    40   19   20 am   BACKBONE|DICT|INTERRES
    41   19   89 1    
    42   20   21 2    
    43   20   22 1    
    44   22   23 1    
    45   22   24 1    
    46   22   90 1    
    47   23   91 1    
    48   23   92 1    
    49   23   93 1    
    50   24   25 am   BACKBONE|DICT|INTERRES
    51   24   94 1    
    52   25   26 2    
    53   25   27 1    
    54   27   28 1    
    55   27   29 1    
    56   27   95 1    
    57   28   96 1    
    58   28   97 1    
    59   28   98 1    
    60   29   30 am   BACKBONE|DICT|INTERRES
    61   29   99 1    
    62   30   31 2    
    63   30   32 1    
    64   32   33 1    
    65   32   34 1    
    66   32  100 1    
    67   33  101 1    
    68   33  102 1    
    69   33  103 1    
    70   34   35 am   BACKBONE|DICT|INTERRES
    71   34  104 1    
    72   35   36 2    
    73   37   38 2    
    74   37   39 am   BACKBONE|DICT|INTERRES
    75   39   40 1    
    76   39  105 1    
    77   40   41 1    
    78   40   42 1    
    79   40  106 1    
    80   41  107 1    
    81   41  108 1    
    82   41  109 1    
    83   42   43 2    
    84   42   44 am   BACKBONE|DICT|INTERRES
    85   44   45 1    
    86   44  110 1    
    87   45   46 1    
    88   45   47 1    
    89   45  111 1    
    90   46  112 1    
    91   46  113 1    
    92   46  114 1    
    93   47   48 2    
    94   47   49 am   BACKBONE|DICT|INTERRES
    95   49   50 1    
    96   49  115 1    
    97   50   51 1    
    98   50   52 1    
    99   50  116 1    
   100   51  117 1    
   101   51  118 1    
   102   51  119 1    
   103   52   53 2    
   104   52   54 am   BACKBONE|DICT|INTERRES
   105   54   55 1    
   106   54  120 1    
   107   55   56 1    
   108   55   57 1    
   109   55  121 1    
   110   56  122 1    
   111   56  123 1    
   112   56  124 1    
   113   57   58 2    
   114   57   59 am   BACKBONE|DICT|INTERRES
   115   59   60 1    
   116   59  125 1    
   117   60   61 1    
   118   60   62 1    
   119   60  126 1    
   120   61  127 1    
   121   61  128 1    
   122   61  129 1    
   123   62   63 2    
   124   62   64 am   BACKBONE|DICT|INTERRES
   125   64   65 1    
   126   64  130 1    
   127   65   66 1    
   128   65   69 1    
   129   65  131 1    
   130   66   67 am   BACKBONE|DICT|INTERRES
   131   66   68 2    
   132   67  132 1    
   133   67  133 1    
   134   69   70 1    
   135   69  134 1    
   136   69  135 1    
   137   70   71 1    
   138   71  136 1    
   139   71  137 1    
@<TRIPOS>SUBSTRUCTURE
     1 UNK         1 GROUP             0       ****    0 ROOT    
