@<TRIPOS>MOLECULE
3R137
137   139    1
SMALL
USER_CHARGES


@<TRIPOS>ATOM
      1 CA         25.5515   -7.6310   -3.1670 C.3       0 UNK        -0.2020 
      2 C          25.5065   -6.4441   -2.2161 C.2       0 UNK         0.4855 
      3 O          24.6528   -6.4019   -1.3292 O.2       0 UNK        -0.5197 
      4 N          26.4255   -5.4864   -2.3883 N.am      1 UNK        -0.4892 
      5 CA         26.4967   -4.2456   -1.6074 C.3       1 UNK         0.0835 
      6 C6         27.8792   -3.5643   -1.7357 C.3       12 UNK        -0.0855 
      7 S7         29.2401   -4.6171   -1.1252 S.3       12 UNK        -0.2931 
      8 C8         30.3817   -4.6190   -2.5538 C.3       12 UNK         0.0378 
      9 C9         30.8010   -3.2294   -3.0372 C.ar      12 UNK        -0.0802 
     10 C10        31.0786   -3.0340   -4.3930 C.ar      12 UNK        -0.0944 
     11 C11        31.4483   -1.7742   -4.8736 C.ar      12 UNK        -0.0787 
     12 C12        31.5422   -0.6976   -3.9868 C.ar      12 UNK        -0.0862 
     13 C13        31.2496   -0.8730   -2.6308 C.ar      12 UNK        -0.0733 
     14 C14        30.9078   -2.1434   -2.1605 C.ar      12 UNK        -0.0832 
     15 C15        31.2747    0.3038   -1.6638 C.3       12 UNK         0.0240 
     16 S16        30.0552    1.6042   -2.0641 S.3       12 UNK        -0.2522 
     17 C17        28.5321    0.6897   -2.5108 C.3       12 UNK        -0.0967 
     18 CA         28.2829    0.7324   -4.0409 C.3       5 UNK         0.0660 
     19 N          27.4017   -0.3389   -4.5081 N.am      5 UNK        -0.4015 
     20 C          27.4209   -0.8237   -5.7596 C.2       4 UNK         0.4946 
     21 O          28.2310   -0.4738   -6.6185 O.2       4 UNK        -0.5353 
     22 CA         26.3316   -1.8392   -6.1435 C.3       4 UNK         0.0277 
     23 CB         26.8063   -3.2755   -5.8751 C.3       4 UNK        -0.1981 
     24 N          25.0545   -1.5939   -5.4669 N.am      4 UNK        -0.4209 
     25 C          24.2881   -0.5161   -5.6982 C.2       3 UNK         0.4942 
     26 O          24.5652    0.3488   -6.5271 O.2       3 UNK        -0.5208 
     27 CA         23.0285   -0.3311   -4.8347 C.3       3 UNK         0.0250 
     28 CB         21.8170   -0.9913   -5.5109 C.3       3 UNK        -0.1990 
     29 N          23.1547   -0.8346   -3.4664 N.am      3 UNK        -0.4232 
     30 C          24.1095   -0.5093   -2.5832 C.2       2 UNK         0.4993 
     31 O          25.0257    0.2832   -2.8170 O.2       2 UNK        -0.5286 
     32 CA         24.0740   -1.2453   -1.2302 C.3       2 UNK         0.0209 
     33 CB         22.6920   -1.8447   -0.8831 C.3       2 UNK        -0.1931 
     34 N          25.1059   -2.2873   -1.1279 N.am      2 UNK        -0.4546 
     35 C          25.3762   -3.2638   -2.0103 C.2       1 UNK         0.5154 
     36 O          24.8155   -3.3833   -3.1047 O.2       1 UNK        -0.5181 
     37 C          27.7683    2.1055   -4.5107 C.2       5 UNK         0.5014 
     38 O          28.5752    2.9286   -4.9423 O.2       5 UNK        -0.5248 
     39 N          26.4433    2.3195   -4.4639 N.am      6 UNK        -0.4434 
     40 CA         25.7892    3.5493   -4.9282 C.3       6 UNK         0.0363 
     41 CB         24.2908    3.5054   -4.5930 C.3       6 UNK        -0.1936 
     42 C          26.0034    3.8192   -6.4294 C.2       6 UNK         0.5081 
     43 O          26.2837    4.9572   -6.8064 O.2       6 UNK        -0.5248 
     44 N          25.9017    2.7663   -7.2522 N.am      7 UNK        -0.4718 
     45 CA         26.2087    2.7995   -8.6851 C.3       7 UNK         0.0273 
     46 CB         25.5043    1.6177   -9.3720 C.3       7 UNK        -0.1935 
     47 C          27.7187    2.7550   -8.9847 C.2       7 UNK         0.5018 
     48 O          28.1089    3.0855  -10.1050 O.2       7 UNK        -0.5186 
     49 N          28.5236    2.3254   -7.9996 N.am      8 UNK        -0.4240 
     50 CA         29.9649    2.0557   -8.0598 C.3       8 UNK         0.0235 
     51 CB         30.7637    3.3658   -8.2153 C.3       8 UNK        -0.2000 
     52 C          30.3004    1.0070   -9.1362 C.2       8 UNK         0.4941 
     53 O          31.1541    1.2515   -9.9916 O.2       8 UNK        -0.5273 
     54 N          29.5908   -0.1296   -9.0796 N.am      9 UNK        -0.4262 
     55 CA         29.5958   -1.2325  -10.0458 C.3       9 UNK         0.0264 
     56 CB         28.5703   -2.2856   -9.5883 C.3       9 UNK        -0.1955 
     57 C          30.9926   -1.8477  -10.2515 C.2       9 UNK         0.5031 
     58 O          31.3715   -2.7640   -9.5215 O.2       9 UNK        -0.5390 
     59 N          31.7329   -1.2987  -11.2257 N.am      10 UNK        -0.4204 
     60 CA         33.1498   -1.5475  -11.5231 C.3       10 UNK         0.0237 
     61 CB         33.3898   -3.0131  -11.9475 C.3       10 UNK        -0.1985 
     62 C          34.1045   -1.0805  -10.4014 C.2       10 UNK         0.4970 
     63 O          35.2261   -1.5846  -10.3175 O.2       10 UNK        -0.4914 
     64 N          33.6592   -0.1161   -9.5842 N.am      11 UNK        -0.4285 
     65 CA         34.4228    0.4947   -8.4823 C.3       11 UNK         0.1007 
     66 C          34.7424    1.9971   -8.7261 C.2       11 UNK         0.5703 
     67 N          34.2476    2.6259   -9.7866 N.am      11 UNK        -0.7361 
     68 O          35.4732    2.6027   -7.9459 O.2       11 UNK        -0.4986 
     69 C69        33.7333    0.2862   -7.1051 C.3       12 UNK        -0.0947 
     70 S70        33.5018   -1.4797   -6.7002 S.3       12 UNK        -0.2240 
     71 C71        31.7170   -1.5787   -6.3562 C.3       12 UNK         0.0194 
     72 H72        24.6140   -7.7052   -3.7175 H         1 UNK         0.0906 
     73 H73        26.3627   -7.5450   -3.8898 H         1 UNK         0.0906 
     74 H74        25.6928   -8.5554   -2.6075 H         1 UNK         0.0906 
     75 H75        27.0978   -5.5712   -3.1358 H         1 UNK         0.3140 
     76 H76        26.3389   -4.5044   -0.5576 H         1 UNK         0.1085 
     77 H77        27.9108   -2.6391   -1.1574 H         1 UNK         0.0836 
     78 H78        28.0671   -3.2745   -2.7704 H         1 UNK         0.0836 
     79 H79        29.9059   -5.1698   -3.3668 H         1 UNK         0.0731 
     80 H80        31.2781   -5.1787   -2.2840 H         1 UNK         0.0731 
     81 H81        31.0010   -3.8652   -5.0807 H         1 UNK         0.1312 
     82 H82        31.8143    0.2818   -4.3560 H         1 UNK         0.1406 
     83 H83        30.6990   -2.2788   -1.1085 H         1 UNK         0.1631 
     84 H84        32.2723    0.7449   -1.6642 H         1 UNK         0.0717 
     85 H85        31.0920   -0.0321   -0.6419 H         1 UNK         0.0717 
     86 H86        28.6210   -0.3412   -2.1678 H         1 UNK         0.0934 
     87 H87        27.6869    1.1074   -1.9599 H         1 UNK         0.0934 
     88 H88        29.2445    0.5829   -4.5336 H         1 UNK         0.0739 
     89 H89        26.6455   -0.6024   -3.8889 H         1 UNK         0.3093 
     90 H90        26.1623   -1.7383   -7.2178 H         1 UNK         0.0818 
     91 H91        27.7495   -3.4771   -6.3848 H         1 UNK         0.0819 
     92 H92        26.0807   -4.0055   -6.2337 H         1 UNK         0.0819 
     93 H93        26.9654   -3.4579   -4.8139 H         1 UNK         0.0819 
     94 H94        24.7808   -2.2501   -4.7396 H         1 UNK         0.3041 
     95 H95        22.8320    0.7386   -4.7625 H         1 UNK         0.0784 
     96 H96        21.6845   -0.6156   -6.5267 H         1 UNK         0.0793 
     97 H97        21.9312   -2.0742   -5.5759 H         1 UNK         0.0793 
     98 H98        20.8949   -0.7817   -4.9682 H         1 UNK         0.0793 
     99 H99        22.4822   -1.5330   -3.1848 H         1 UNK         0.3024 
    100 H100       24.3064   -0.4907   -0.4765 H         1 UNK         0.1171 
    101 H101       22.6789   -2.2196    0.1405 H         1 UNK         0.0786 
    102 H102       21.9036   -1.0937   -0.9542 H         1 UNK         0.0786 
    103 H103       22.4241   -2.6769   -1.5355 H         1 UNK         0.0786 
    104 H104       25.6559   -2.2542   -0.2803 H         1 UNK         0.2977 
    105 H105       25.8494    1.6064   -4.0501 H         1 UNK         0.3127 
    106 H106       26.2349    4.3791   -4.3754 H         1 UNK         0.0770 
    107 H107       23.7673    2.7634   -5.1944 H         1 UNK         0.0814 
    108 H108       23.8226    4.4695   -4.7948 H         1 UNK         0.0814 
    109 H109       24.1195    3.2739   -3.5414 H         1 UNK         0.0814 
    110 H110       25.5817    1.8745   -6.8774 H         1 UNK         0.2983 
    111 H111       25.8160    3.7271   -9.1075 H         1 UNK         0.0947 
    112 H112       25.6687    1.6359  -10.4502 H         1 UNK         0.0806 
    113 H113       24.4271    1.6472   -9.2072 H         1 UNK         0.0806 
    114 H114       25.8728    0.6599   -9.0014 H         1 UNK         0.0806 
    115 H115       28.0841    2.0965   -7.1184 H         1 UNK         0.3000 
    116 H116       30.2347    1.6158   -7.0985 H         1 UNK         0.0850 
    117 H117       31.8357    3.1786   -8.1514 H         1 UNK         0.0810 
    118 H118       30.5113    4.0766   -7.4284 H         1 UNK         0.0810 
    119 H119       30.5740    3.8457   -9.1760 H         1 UNK         0.0810 
    120 H120       28.9765   -0.2490   -8.2746 H         1 UNK         0.3040 
    121 H121       29.2553   -0.8325  -11.0029 H         1 UNK         0.0766 
    122 H122       27.5644   -1.8677   -9.5453 H         1 UNK         0.0812 
    123 H123       28.8112   -2.6773   -8.5990 H         1 UNK         0.0812 
    124 H124       28.5427   -3.1308  -10.2771 H         1 UNK         0.0812 
    125 H125       31.3266   -0.5131  -11.7177 H         1 UNK         0.3205 
    126 H126       33.3842   -0.9203  -12.3844 H         1 UNK         0.0754 
    127 H127       34.4006   -3.1480  -12.3341 H         1 UNK         0.0769 
    128 H128       32.7006   -3.3165  -12.7355 H         1 UNK         0.0769 
    129 H129       33.2697   -3.7029  -11.1117 H         1 UNK         0.0769 
    130 H130       32.7335    0.2723   -9.7443 H         1 UNK         0.2981 
    131 H131       35.4013    0.0158   -8.4204 H         1 UNK         0.0541 
    132 H132       33.6275    2.1538  -10.4251 H         1 UNK         0.3459 
    133 H133       34.4755    3.5965   -9.9318 H         1 UNK         0.3459 
    134 H134       34.3372    0.7199   -6.3060 H         1 UNK         0.0612 
    135 H135       32.7790    0.8127   -7.0782 H         1 UNK         0.0612 
    136 H136       31.1907   -0.6943   -6.7121 H         1 UNK         0.0624 
    137 H137       31.3034   -2.4141   -6.9215 H         1 UNK         0.0624 
@<TRIPOS>BOND
     1    1    2 1    
     2    1   72 1    
     3    1   73 1    
     4    1   74 1    
     5    2    3 2    
     6    2    4 am   BACKBONE|DICT|INTERRES
     7    4    5 1    
     8    4   75 1    
     9    5    6 1    
    10    5   35 1    
    11    5   76 1    
    12    6    7 1    
    13    6   77 1    
    14    6   78 1    
    15    7    8 1    
    16    8    9 1    
    17    8   79 1    
    18    8   80 1    
    19    9   10 ar   
    20    9   14 ar   
    21   10   11 ar   
    22   10   81 1    
    23   11   12 ar   
    24   11   71 1    
    25   12   13 ar   
    26   12   82 1    
    27   13   14 ar   
    28   13   15 1    
    29   14   83 1    
    30   15   16 1    
    31   15   84 1    
    32   15   85 1    
    33   16   17 1    
    34   17   18 1    
    35   17   86 1    
    36   17   87 1    
    37   18   19 1    
    38   18   37 1    
    39   18   88 1    
    40   19   20 am   BACKBONE|DICT|INTERRES
    41   19   89 1    
    42   20   21 2    
    43   20   22 1    
    44   22   23 1    
    45   22   24 1    
    46   22   90 1    
    47   23   91 1    
    48   23   92 1    
    49   23   93 1    
    50   24   25 am   BACKBONE|DICT|INTERRES
    51   24   94 1    
    52   25   26 2    
    53   25   27 1    
    54   27   28 1    
    55   27   29 1    
    56   27   95 1    
    57   28   96 1    
    58   28   97 1    
    59   28   98 1    
    60   29   30 am   BACKBONE|DICT|INTERRES
    61   29   99 1    
    62   30   31 2    
    63   30   32 1    
    64   32   33 1    
    65   32   34 1    
    66   32  100 1    
    67   33  101 1    
    68   33  102 1    
    69   33  103 1    
    70   34   35 am   BACKBONE|DICT|INTERRES
    71   34  104 1    
    72   35   36 2    
    73   37   38 2    
    74   37   39 am   BACKBONE|DICT|INTERRES
    75   39   40 1    
    76   39  105 1    
    77   40   41 1    
    78   40   42 1    
    79   40  106 1    
    80   41  107 1    
    81   41  108 1    
    82   41  109 1    
    83   42   43 2    
    84   42   44 am   BACKBONE|DICT|INTERRES
    85   44   45 1    
    86   44  110 1    
    87   45   46 1    
    88   45   47 1    
    89   45  111 1    
    90   46  112 1    
    91   46  113 1    
    92   46  114 1    
    93   47   48 2    
    94   47   49 am   BACKBONE|DICT|INTERRES
    95   49   50 1    
    96   49  115 1    
    97   50   51 1    
    98   50   52 1    
    99   50  116 1    
   100   51  117 1    
   101   51  118 1    
   102   51  119 1    
   103   52   53 2    
   104   52   54 am   BACKBONE|DICT|INTERRES
   105   54   55 1    
   106   54  120 1    
   107   55   56 1    
   108   55   57 1    
   109   55  121 1    
   110   56  122 1    
   111   56  123 1    
   112   56  124 1    
   113   57   58 2    
   114   57   59 am   BACKBONE|DICT|INTERRES
   115   59   60 1    
   116   59  125 1    
   117   60   61 1    
   118   60   62 1    
   119   60  126 1    
   120   61  127 1    
   121   61  128 1    
   122   61  129 1    
   123   62   63 2    
   124   62   64 am   BACKBONE|DICT|INTERRES
   125   64   65 1    
   126   64  130 1    
   127   65   66 1    
   128   65   69 1    
   129   65  131 1    
   130   66   67 am   BACKBONE|DICT|INTERRES
   131   66   68 2    
   132   67  132 1    
   133   67  133 1    
   134   69   70 1    
   135   69  134 1    
   136   69  135 1    
   137   70   71 1    
   138   71  136 1    
   139   71  137 1    
@<TRIPOS>SUBSTRUCTURE
     1 UNK         1 GROUP             0       ****    0 ROOT    
