@<TRIPOS>MOLECULE
3R137
137   139    1
SMALL
USER_CHARGES


@<TRIPOS>ATOM
      1 CA         28.2024   -6.5369   -0.5801 C.3       0 UNK        -0.2020 
      2 C          27.3353   -5.5416    0.1763 C.2       0 UNK         0.4855 
      3 O          26.4102   -5.9449    0.8811 O.2       0 UNK        -0.5197 
      4 N          27.6258   -4.2421    0.0333 N.am      1 UNK        -0.4892 
      5 CA         26.8855   -3.1386    0.6605 C.3       1 UNK         0.0835 
      6 C6         27.7494   -1.8516    0.7421 C.3       12 UNK        -0.0855 
      7 S7         28.2049   -1.1630   -0.8884 S.3       12 UNK        -0.2931 
      8 C8         29.9274   -1.7073   -1.0825 C.3       12 UNK         0.0378 
      9 C9         30.2618   -1.8549   -2.5575 C.ar      12 UNK        -0.0802 
     10 C10        30.8734   -0.8110   -3.2577 C.ar      12 UNK        -0.0944 
     11 C11        31.1624   -0.9463   -4.6196 C.ar      12 UNK        -0.0787 
     12 C12        30.8459   -2.1390   -5.2766 C.ar      12 UNK        -0.0862 
     13 C13        30.2167   -3.1818   -4.5902 C.ar      12 UNK        -0.0733 
     14 C14        29.9355   -3.0360   -3.2296 C.ar      12 UNK        -0.0832 
     15 C15        29.8346   -4.4673   -5.3115 C.3       12 UNK         0.0240 
     16 S16        28.6537   -4.1978   -6.6737 S.3       12 UNK        -0.2522 
     17 C17        27.2283   -3.4074   -5.8466 C.3       12 UNK        -0.0967 
     18 CA         26.7795   -2.1298   -6.6015 C.3       5 UNK         0.0660 
     19 N          25.3522   -1.8545   -6.4339 N.am      5 UNK        -0.4015 
     20 C          24.5909   -1.2400   -7.3522 C.2       4 UNK         0.4946 
     21 O          24.9906   -0.9171   -8.4709 O.2       4 UNK        -0.5353 
     22 CA         23.1363   -0.9171   -6.9646 C.3       4 UNK         0.0277 
     23 CB         22.1997   -2.0573   -7.3958 C.3       4 UNK        -0.1981 
     24 N          22.9575   -0.6566   -5.5348 N.am      4 UNK        -0.4209 
     25 C          23.4876    0.3858   -4.8796 C.2       3 UNK         0.4942 
     26 O          24.1460    1.2723   -5.4220 O.2       3 UNK        -0.5208 
     27 CA         23.2964    0.4121   -3.3529 C.3       3 UNK         0.0250 
     28 CB         21.9963    1.1455   -2.9872 C.3       3 UNK        -0.1990 
     29 N          23.3071   -0.9150   -2.7230 N.am      3 UNK        -0.4232 
     30 C          24.3135   -1.7967   -2.8030 C.2       2 UNK         0.4993 
     31 O          25.3302   -1.6218   -3.4806 O.2       2 UNK        -0.5286 
     32 CA         24.1360   -3.1226   -2.0538 C.3       2 UNK         0.0209 
     33 CB         23.9553   -4.2809   -3.0493 C.3       2 UNK        -0.1931 
     34 N          25.3136   -3.3779   -1.2292 N.am      2 UNK        -0.4546 
     35 C          25.5125   -2.8729   -0.0033 C.2       1 UNK         0.5154 
     36 O          24.6649   -2.2162    0.6047 O.2       1 UNK        -0.5181 
     37 C          27.6076   -0.8879   -6.2228 C.2       5 UNK         0.5014 
     38 O          28.5358   -0.5438   -6.9522 O.2       5 UNK        -0.5248 
     39 N          27.2232   -0.1934   -5.1393 N.am      6 UNK        -0.4434 
     40 CA         27.8397    1.0613   -4.6883 C.3       6 UNK         0.0363 
     41 CB         27.1402    1.5521   -3.4117 C.3       6 UNK        -0.1936 
     42 C          27.8273    2.1733   -5.7537 C.2       6 UNK         0.5081 
     43 O          28.7942    2.9277   -5.8584 O.2       6 UNK        -0.5248 
     44 N          26.7372    2.2426   -6.5280 N.am      7 UNK        -0.4718 
     45 CA         26.5539    3.1714   -7.6429 C.3       7 UNK         0.0273 
     46 CB         25.0450    3.3350   -7.8935 C.3       7 UNK        -0.1935 
     47 C          27.2683    2.7491   -8.9425 C.2       7 UNK         0.5018 
     48 O          27.2998    3.5516   -9.8778 O.2       7 UNK        -0.5186 
     49 N          27.7923    1.5165   -9.0182 N.am      8 UNK        -0.4240 
     50 CA         28.4529    0.9829  -10.2119 C.3       8 UNK         0.0235 
     51 CB         28.4270   -0.5556  -10.1723 C.3       8 UNK        -0.2000 
     52 C          29.8959    1.4943  -10.3477 C.2       8 UNK         0.4941 
     53 O          30.5102    1.9216   -9.3675 O.2       8 UNK        -0.5273 
     54 N          30.4331    1.3817  -11.5696 N.am      9 UNK        -0.4262 
     55 CA         31.7942    1.7858  -11.9420 C.3       9 UNK         0.0264 
     56 CB         31.8966    1.8243  -13.4765 C.3       9 UNK        -0.1955 
     57 C          32.9162    0.9101  -11.3473 C.2       9 UNK         0.5031 
     58 O          34.0861    1.2630  -11.5001 O.2       9 UNK        -0.5390 
     59 N          32.5609   -0.1990  -10.6813 N.am      10 UNK        -0.4204 
     60 CA         33.4669   -1.1657  -10.0490 C.3       10 UNK         0.0237 
     61 CB         32.6304   -2.2751   -9.3890 C.3       10 UNK        -0.1985 
     62 C          34.4486   -0.5603   -9.0272 C.2       10 UNK         0.4970 
     63 O          35.5662   -1.0633   -8.9042 O.2       10 UNK        -0.4914 
     64 N          34.0239    0.5041   -8.3357 N.am      11 UNK        -0.4285 
     65 CA         34.8528    1.2874   -7.4056 C.3       11 UNK         0.1007 
     66 C          35.5604    2.5051   -8.0717 C.2       11 UNK         0.5703 
     67 N          35.4628    2.7164   -9.3794 N.am      11 UNK        -0.7361 
     68 O          36.2356    3.2719   -7.3887 O.2       11 UNK        -0.4986 
     69 C69        34.0503    1.6976   -6.1427 C.3       12 UNK        -0.0947 
     70 S70        33.5855    0.2508   -5.1352 S.3       12 UNK        -0.2240 
     71 C71        31.7883    0.2069   -5.3867 C.3       12 UNK         0.0194 
     72 H72        27.5969   -7.0952   -1.2936 H         1 UNK         0.0906 
     73 H73        29.0074   -6.0473   -1.1275 H         1 UNK         0.0906 
     74 H74        28.6503   -7.2470    0.1147 H         1 UNK         0.0906 
     75 H75        28.3957   -3.9616   -0.5543 H         1 UNK         0.3140 
     76 H76        26.6632   -3.4388    1.6873 H         1 UNK         0.1085 
     77 H77        27.2138   -1.0777    1.2954 H         1 UNK         0.0836 
     78 H78        28.6529   -2.0449    1.3226 H         1 UNK         0.0836 
     79 H79        30.5912   -0.9851   -0.6045 H         1 UNK         0.0731 
     80 H80        30.0888   -2.6580   -0.5729 H         1 UNK         0.0731 
     81 H81        31.1138    0.1118   -2.7476 H         1 UNK         0.1312 
     82 H82        31.0558   -2.2443   -6.3319 H         1 UNK         0.1406 
     83 H83        29.4494   -3.8393   -2.6949 H         1 UNK         0.1631 
     84 H84        29.4065   -5.1930   -4.6181 H         1 UNK         0.0717 
     85 H85        30.7373   -4.9267   -5.7160 H         1 UNK         0.0717 
     86 H86        26.4233   -4.1439   -5.8470 H         1 UNK         0.0934 
     87 H87        27.4378   -3.2018   -4.7952 H         1 UNK         0.0934 
     88 H88        26.9478   -2.3050   -7.6669 H         1 UNK         0.0739 
     89 H89        24.9750   -2.0139   -5.5080 H         1 UNK         0.3093 
     90 H90        22.8480   -0.0133   -7.5060 H         1 UNK         0.0818 
     91 H91        21.1555   -1.8067   -7.2077 H         1 UNK         0.0819 
     92 H92        22.2949   -2.2560   -8.4644 H         1 UNK         0.0819 
     93 H93        22.4235   -2.9868   -6.8707 H         1 UNK         0.0819 
     94 H94        22.4217   -1.3310   -5.0082 H         1 UNK         0.3041 
     95 H95        24.1304    0.9735   -2.9294 H         1 UNK         0.0784 
     96 H96        21.9753    2.1439   -3.4270 H         1 UNK         0.0793 
     97 H97        21.1150    0.6126   -3.3466 H         1 UNK         0.0793 
     98 H98        21.8991    1.2683   -1.9083 H         1 UNK         0.0793 
     99 H99        22.5053   -1.1441   -2.1526 H         1 UNK         0.3024 
    100 H100       23.2510   -3.0706   -1.4152 H         1 UNK         0.1171 
    101 H101       24.8149   -4.3854   -3.7127 H         1 UNK         0.0786 
    102 H102       23.0760   -4.1254   -3.6759 H         1 UNK         0.0786 
    103 H103       23.8179   -5.2296   -2.5301 H         1 UNK         0.0786 
    104 H104       26.0830   -3.8578   -1.6710 H         1 UNK         0.2977 
    105 H105       26.4813   -0.5744   -4.5564 H         1 UNK         0.3127 
    106 H106       28.8793    0.8390   -4.4474 H         1 UNK         0.0770 
    107 H107       26.1438    1.9391   -3.6232 H         1 UNK         0.0814 
    108 H108       27.7079    2.3587   -2.9467 H         1 UNK         0.0814 
    109 H109       27.0389    0.7568   -2.6754 H         1 UNK         0.0814 
    110 H110       25.9543    1.6330   -6.3113 H         1 UNK         0.2983 
    111 H111       26.9598    4.1437   -7.3552 H         1 UNK         0.0947 
    112 H112       24.8527    4.0513   -8.6934 H         1 UNK         0.0806 
    113 H113       24.5325    3.7001   -7.0031 H         1 UNK         0.0806 
    114 H114       24.5819    2.3898   -8.1808 H         1 UNK         0.0806 
    115 H115       27.8225    0.9354   -8.1870 H         1 UNK         0.3000 
    116 H116       27.8873    1.3089  -11.0877 H         1 UNK         0.0850 
    117 H117       28.7357   -0.9785  -11.1288 H         1 UNK         0.0810 
    118 H118       27.4251   -0.9320   -9.9637 H         1 UNK         0.0810 
    119 H119       29.0995   -0.9557   -9.4131 H         1 UNK         0.0810 
    120 H120       29.8635    1.0029  -12.3134 H         1 UNK         0.3040 
    121 H121       31.9547    2.7986  -11.5659 H         1 UNK         0.0766 
    122 H122       32.8816    2.1686  -13.7957 H         1 UNK         0.0812 
    123 H123       31.1648    2.5079  -13.9074 H         1 UNK         0.0812 
    124 H124       31.7386    0.8390  -13.9168 H         1 UNK         0.0812 
    125 H125       31.5742   -0.3942  -10.6061 H         1 UNK         0.3205 
    126 H126       34.0658   -1.6133  -10.8446 H         1 UNK         0.0754 
    127 H127       33.2711   -3.0190   -8.9132 H         1 UNK         0.0769 
    128 H128       32.0169   -2.8007  -10.1211 H         1 UNK         0.0769 
    129 H129       31.9676   -1.8760   -8.6198 H         1 UNK         0.0769 
    130 H130       33.0984    0.8644   -8.5181 H         1 UNK         0.2981 
    131 H131       35.6750    0.6579   -7.0606 H         1 UNK         0.0541 
    132 H132       35.9398    3.5086   -9.7788 H         1 UNK         0.3459 
    133 H133       34.9499    2.0856   -9.9875 H         1 UNK         0.3459 
    134 H134       33.1630    2.2710   -6.4171 H         1 UNK         0.0612 
    135 H135       34.6441    2.3475   -5.4977 H         1 UNK         0.0612 
    136 H136       31.3507    1.1508   -5.0577 H         1 UNK         0.0624 
    137 H137       31.5696    0.1197   -6.4526 H         1 UNK         0.0624 
@<TRIPOS>BOND
     1    1    2 1    
     2    1   72 1    
     3    1   73 1    
     4    1   74 1    
     5    2    3 2    
     6    2    4 am   BACKBONE|DICT|INTERRES
     7    4    5 1    
     8    4   75 1    
     9    5    6 1    
    10    5   35 1    
    11    5   76 1    
    12    6    7 1    
    13    6   77 1    
    14    6   78 1    
    15    7    8 1    
    16    8    9 1    
    17    8   79 1    
    18    8   80 1    
    19    9   10 ar   
    20    9   14 ar   
    21   10   11 ar   
    22   10   81 1    
    23   11   12 ar   
    24   11   71 1    
    25   12   13 ar   
    26   12   82 1    
    27   13   14 ar   
    28   13   15 1    
    29   14   83 1    
    30   15   16 1    
    31   15   84 1    
    32   15   85 1    
    33   16   17 1    
    34   17   18 1    
    35   17   86 1    
    36   17   87 1    
    37   18   19 1    
    38   18   37 1    
    39   18   88 1    
    40   19   20 am   BACKBONE|DICT|INTERRES
    41   19   89 1    
    42   20   21 2    
    43   20   22 1    
    44   22   23 1    
    45   22   24 1    
    46   22   90 1    
    47   23   91 1    
    48   23   92 1    
    49   23   93 1    
    50   24   25 am   BACKBONE|DICT|INTERRES
    51   24   94 1    
    52   25   26 2    
    53   25   27 1    
    54   27   28 1    
    55   27   29 1    
    56   27   95 1    
    57   28   96 1    
    58   28   97 1    
    59   28   98 1    
    60   29   30 am   BACKBONE|DICT|INTERRES
    61   29   99 1    
    62   30   31 2    
    63   30   32 1    
    64   32   33 1    
    65   32   34 1    
    66   32  100 1    
    67   33  101 1    
    68   33  102 1    
    69   33  103 1    
    70   34   35 am   BACKBONE|DICT|INTERRES
    71   34  104 1    
    72   35   36 2    
    73   37   38 2    
    74   37   39 am   BACKBONE|DICT|INTERRES
    75   39   40 1    
    76   39  105 1    
    77   40   41 1    
    78   40   42 1    
    79   40  106 1    
    80   41  107 1    
    81   41  108 1    
    82   41  109 1    
    83   42   43 2    
    84   42   44 am   BACKBONE|DICT|INTERRES
    85   44   45 1    
    86   44  110 1    
    87   45   46 1    
    88   45   47 1    
    89   45  111 1    
    90   46  112 1    
    91   46  113 1    
    92   46  114 1    
    93   47   48 2    
    94   47   49 am   BACKBONE|DICT|INTERRES
    95   49   50 1    
    96   49  115 1    
    97   50   51 1    
    98   50   52 1    
    99   50  116 1    
   100   51  117 1    
   101   51  118 1    
   102   51  119 1    
   103   52   53 2    
   104   52   54 am   BACKBONE|DICT|INTERRES
   105   54   55 1    
   106   54  120 1    
   107   55   56 1    
   108   55   57 1    
   109   55  121 1    
   110   56  122 1    
   111   56  123 1    
   112   56  124 1    
   113   57   58 2    
   114   57   59 am   BACKBONE|DICT|INTERRES
   115   59   60 1    
   116   59  125 1    
   117   60   61 1    
   118   60   62 1    
   119   60  126 1    
   120   61  127 1    
   121   61  128 1    
   122   61  129 1    
   123   62   63 2    
   124   62   64 am   BACKBONE|DICT|INTERRES
   125   64   65 1    
   126   64  130 1    
   127   65   66 1    
   128   65   69 1    
   129   65  131 1    
   130   66   67 am   BACKBONE|DICT|INTERRES
   131   66   68 2    
   132   67  132 1    
   133   67  133 1    
   134   69   70 1    
   135   69  134 1    
   136   69  135 1    
   137   70   71 1    
   138   71  136 1    
   139   71  137 1    
@<TRIPOS>SUBSTRUCTURE
     1 UNK         1 GROUP             0       ****    0 ROOT    
