@<TRIPOS>MOLECULE
3R137
137   139    1
SMALL
USER_CHARGES


@<TRIPOS>ATOM
      1 CA         25.0911   -6.1558   -2.9684 C.3       0 UNK        -0.2020 
      2 C          25.8156   -4.8502   -2.6819 C.2       0 UNK         0.4855 
      3 O          25.8391   -3.9705   -3.5407 O.2       0 UNK        -0.5197 
      4 N          26.3842   -4.7121   -1.4754 N.am      1 UNK        -0.4892 
      5 CA         27.1851   -3.5694   -1.0000 C.3       1 UNK         0.0835 
      6 C6         28.5186   -3.3801   -1.7689 C.3       12 UNK        -0.0855 
      7 S7         29.5856   -4.8554   -1.8983 S.3       12 UNK        -0.2931 
      8 C8         31.2576   -4.1133   -1.8475 C.3       12 UNK         0.0378 
      9 C9         31.3631   -2.8425   -2.6855 C.ar      12 UNK        -0.0802 
     10 C10        31.3569   -2.9108   -4.0806 C.ar      12 UNK        -0.0944 
     11 C11        31.3982   -1.7414   -4.8513 C.ar      12 UNK        -0.0787 
     12 C12        31.4388   -0.5007   -4.2072 C.ar      12 UNK        -0.0862 
     13 C13        31.4128   -0.4156   -2.8119 C.ar      12 UNK        -0.0733 
     14 C14        31.4067   -1.5928   -2.0595 C.ar      12 UNK        -0.0832 
     15 C15        31.3662    0.9330   -2.0958 C.3       12 UNK         0.0240 
     16 S16        30.1652    2.1307   -2.7860 S.3       12 UNK        -0.2522 
     17 C17        28.6243    1.1640   -2.9880 C.3       12 UNK        -0.0967 
     18 CA         28.1952    1.1178   -4.4789 C.3       5 UNK         0.0660 
     19 N          27.5725   -0.1500   -4.8576 N.am      5 UNK        -0.4015 
     20 C          27.5386   -0.6101   -6.1170 C.2       4 UNK         0.4946 
     21 O          28.0663   -0.0400   -7.0753 O.2       4 UNK        -0.5353 
     22 CA         26.7667   -1.9154   -6.3565 C.3       4 UNK         0.0277 
     23 CB         27.6749   -3.1367   -6.1417 C.3       4 UNK        -0.1981 
     24 N          25.5671   -2.0320   -5.5218 N.am      4 UNK        -0.4209 
     25 C          24.4826   -1.2585   -5.6670 C.2       3 UNK         0.4942 
     26 O          24.4137   -0.3252   -6.4644 O.2       3 UNK        -0.5208 
     27 CA         23.2681   -1.5638   -4.7790 C.3       3 UNK         0.0250 
     28 CB         22.5379   -2.8218   -5.2769 C.3       3 UNK        -0.1990 
     29 N          23.5748   -1.7108   -3.3564 N.am      3 UNK        -0.4232 
     30 C          24.1353   -0.7788   -2.5736 C.2       2 UNK         0.4993 
     31 O          24.5941    0.2879   -2.9836 O.2       2 UNK        -0.5286 
     32 CA         24.2119   -1.1218   -1.0767 C.3       2 UNK         0.0209 
     33 CB         22.8196   -1.3765   -0.4711 C.3       2 UNK        -0.1931 
     34 N          25.0715   -2.2864   -0.8640 N.am      2 UNK        -0.4546 
     35 C          26.4057   -2.2315   -0.9650 C.2       1 UNK         0.5154 
     36 O          27.0195   -1.1662   -1.0539 O.2       1 UNK        -0.5181 
     37 C          27.3131    2.3153   -4.8878 C.2       5 UNK         0.5014 
     38 O          27.8492    3.3043   -5.3882 O.2       5 UNK        -0.5248 
     39 N          25.9831    2.1997   -4.7279 N.am      6 UNK        -0.4434 
     40 CA         25.0073    3.2022   -5.1749 C.3       6 UNK         0.0363 
     41 CB         23.6075    2.8449   -4.6512 C.3       6 UNK        -0.1936 
     42 C          24.9814    3.3807   -6.7034 C.2       6 UNK         0.5081 
     43 O          24.8995    4.5136   -7.1785 O.2       6 UNK        -0.5248 
     44 N          25.0820    2.2689   -7.4454 N.am      7 UNK        -0.4718 
     45 CA         25.2080    2.2476   -8.9064 C.3       7 UNK         0.0273 
     46 CB         24.9152    0.8265   -9.4152 C.3       7 UNK        -0.1935 
     47 C          26.5864    2.7128   -9.4116 C.2       7 UNK         0.5018 
     48 O          26.7047    3.0360  -10.5942 O.2       7 UNK        -0.5186 
     49 N          27.5889    2.7244   -8.5196 N.am      8 UNK        -0.4240 
     50 CA         28.9992    3.0465   -8.7524 C.3       8 UNK         0.0235 
     51 CB         29.1723    4.5373   -9.1136 C.3       8 UNK        -0.2000 
     52 C          29.6440    2.0902   -9.7716 C.2       8 UNK         0.4941 
     53 O          30.2112    2.5375  -10.7718 O.2       8 UNK        -0.5273 
     54 N          29.5201    0.7824   -9.5042 N.am      9 UNK        -0.4262 
     55 CA         30.1166   -0.2907  -10.3042 C.3       9 UNK         0.0264 
     56 CB         29.4962   -1.6315   -9.8754 C.3       9 UNK        -0.1955 
     57 C          31.6564   -0.3181  -10.2073 C.2       9 UNK         0.5031 
     58 O          32.2388    0.3332   -9.3357 O.2       9 UNK        -0.5390 
     59 N          32.2872   -1.0945  -11.1019 N.am      10 UNK        -0.4204 
     60 CA         33.7422   -1.1986  -11.3064 C.3       10 UNK         0.0237 
     61 CB         34.0159   -2.2062  -12.4356 C.3       10 UNK        -0.1985 
     62 C          34.5846   -1.5504  -10.0629 C.2       10 UNK         0.4970 
     63 O          35.7784   -1.2480  -10.0436 O.2       10 UNK        -0.4914 
     64 N          33.9554   -2.1576   -9.0515 N.am      11 UNK        -0.4285 
     65 CA         34.4916   -2.3528   -7.6969 C.3       11 UNK         0.1007 
     66 C          34.7895   -1.0440   -6.9024 C.2       11 UNK         0.5703 
     67 N          34.2768    0.1164   -7.2965 N.am      11 UNK        -0.7361 
     68 O          35.5228   -1.0839   -5.9174 O.2       11 UNK        -0.4986 
     69 C69        33.6332   -3.3572   -6.8702 C.3       12 UNK        -0.0947 
     70 S70        31.8307   -3.3108   -7.1865 S.3       12 UNK        -0.2240 
     71 C71        31.3141   -1.7610   -6.3743 C.3       12 UNK         0.0194 
     72 H72        25.5479   -6.6544   -3.8228 H         1 UNK         0.0906 
     73 H73        25.1250   -6.8380   -2.1192 H         1 UNK         0.0906 
     74 H74        24.0461   -5.9603   -3.2071 H         1 UNK         0.0906 
     75 H75        26.3152   -5.4780   -0.8189 H         1 UNK         0.3140 
     76 H76        27.4348   -3.7884    0.0394 H         1 UNK         0.1085 
     77 H77        28.3347   -3.0103   -2.7789 H         1 UNK         0.0836 
     78 H78        29.0907   -2.6048   -1.2605 H         1 UNK         0.0836 
     79 H79        31.9832   -4.8461   -2.2036 H         1 UNK         0.0731 
     80 H80        31.5183   -3.9079   -0.8081 H         1 UNK         0.0731 
     81 H81        31.2878   -3.8793   -4.5549 H         1 UNK         0.1312 
     82 H82        31.4495    0.4067   -4.7954 H         1 UNK         0.1406 
     83 H83        31.3906   -1.5371   -0.9793 H         1 UNK         0.1631 
     84 H84        32.3608    1.3794   -2.1265 H         1 UNK         0.0717 
     85 H85        31.1260    0.7943   -1.0405 H         1 UNK         0.0717 
     86 H86        28.7933    0.1555   -2.6089 H         1 UNK         0.0934 
     87 H87        27.8419    1.5811   -2.3505 H         1 UNK         0.0934 
     88 H88        29.1027    1.1912   -5.0829 H         1 UNK         0.0739 
     89 H89        27.0893   -0.6628   -4.1341 H         1 UNK         0.3093 
     90 H90        26.4435   -1.9171   -7.3998 H         1 UNK         0.0818 
     91 H91        28.0999   -3.1571   -5.1379 H         1 UNK         0.0819 
     92 H92        27.1290   -4.0684   -6.2902 H         1 UNK         0.0819 
     93 H93        28.5049   -3.1355   -6.8484 H         1 UNK         0.0819 
     94 H94        25.5682   -2.7646   -4.8101 H         1 UNK         0.3041 
     95 H95        22.5826   -0.7188   -4.8715 H         1 UNK         0.0784 
     96 H96        22.2894   -2.7360   -6.3358 H         1 UNK         0.0793 
     97 H97        23.1485   -3.7180   -5.1565 H         1 UNK         0.0793 
     98 H98        21.6026   -2.9776   -4.7389 H         1 UNK         0.0793 
     99 H99        23.2872   -2.5776   -2.9285 H         1 UNK         0.3024 
    100 H100       24.6450   -0.2587   -0.5647 H         1 UNK         0.1171 
    101 H101       22.1547   -0.5316   -0.6560 H         1 UNK         0.0786 
    102 H102       22.8807   -1.5064    0.6096 H         1 UNK         0.0786 
    103 H103       22.3420   -2.2652   -0.8847 H         1 UNK         0.0786 
    104 H104       24.6327   -3.1930   -0.7957 H         1 UNK         0.2977 
    105 H105       25.6006    1.3785   -4.2650 H         1 UNK         0.3127 
    106 H106       25.2964    4.1604   -4.7380 H         1 UNK         0.0770 
    107 H107       23.2763    1.8723   -5.0172 H         1 UNK         0.0814 
    108 H108       22.8702    3.5829   -4.9695 H         1 UNK         0.0814 
    109 H109       23.5876    2.8168   -3.5617 H         1 UNK         0.0814 
    110 H110       25.0504    1.3628   -6.9812 H         1 UNK         0.2983 
    111 H111       24.4608    2.9250   -9.3254 H         1 UNK         0.0947 
    112 H112       24.9679    0.7799  -10.5038 H         1 UNK         0.0806 
    113 H113       23.9168    0.4988   -9.1251 H         1 UNK         0.0806 
    114 H114       25.6324    0.1046   -9.0217 H         1 UNK         0.0806 
    115 H115       27.3677    2.4236   -7.5796 H         1 UNK         0.3000 
    116 H116       29.5120    2.8761   -7.8042 H         1 UNK         0.0850 
    117 H117       30.2285    4.7983   -9.1896 H         1 UNK         0.0810 
    118 H118       28.7328    5.1810   -8.3516 H         1 UNK         0.0810 
    119 H119       28.7078    4.7821  -10.0692 H         1 UNK         0.0810 
    120 H120       29.0366    0.5038   -8.6527 H         1 UNK         0.3040 
    121 H121       29.8553   -0.1097  -11.3490 H         1 UNK         0.0766 
    122 H122       28.4136   -1.6231  -10.0052 H         1 UNK         0.0812 
    123 H123       29.6983   -1.8535   -8.8298 H         1 UNK         0.0812 
    124 H124       29.8834   -2.4624  -10.4660 H         1 UNK         0.0812 
    125 H125       31.7183   -1.6049  -11.7624 H         1 UNK         0.3205 
    126 H126       34.0814   -0.2159  -11.6402 H         1 UNK         0.0754 
    127 H127       35.0849   -2.2873  -12.6390 H         1 UNK         0.0769 
    128 H128       33.5363   -1.9023  -13.3664 H         1 UNK         0.0769 
    129 H129       33.6566   -3.2041  -12.1807 H         1 UNK         0.0769 
    130 H130       32.9732   -2.3644   -9.1537 H         1 UNK         0.2981 
    131 H131       35.4710   -2.8168   -7.8283 H         1 UNK         0.0541 
    132 H132       33.6360    0.1640   -8.0854 H         1 UNK         0.3459 
    133 H133       34.4950    0.9511   -6.7779 H         1 UNK         0.3459 
    134 H134       33.9545   -4.3691   -7.1202 H         1 UNK         0.0612 
    135 H135       33.8128   -3.2633   -5.7974 H         1 UNK         0.0612 
    136 H136       30.2765   -1.5737   -6.6392 H         1 UNK         0.0624 
    137 H137       31.8756   -0.9310   -6.7985 H         1 UNK         0.0624 
@<TRIPOS>BOND
     1    1    2 1    
     2    1   72 1    
     3    1   73 1    
     4    1   74 1    
     5    2    3 2    
     6    2    4 am   BACKBONE|DICT|INTERRES
     7    4    5 1    
     8    4   75 1    
     9    5    6 1    
    10    5   35 1    
    11    5   76 1    
    12    6    7 1    
    13    6   77 1    
    14    6   78 1    
    15    7    8 1    
    16    8    9 1    
    17    8   79 1    
    18    8   80 1    
    19    9   10 ar   
    20    9   14 ar   
    21   10   11 ar   
    22   10   81 1    
    23   11   12 ar   
    24   11   71 1    
    25   12   13 ar   
    26   12   82 1    
    27   13   14 ar   
    28   13   15 1    
    29   14   83 1    
    30   15   16 1    
    31   15   84 1    
    32   15   85 1    
    33   16   17 1    
    34   17   18 1    
    35   17   86 1    
    36   17   87 1    
    37   18   19 1    
    38   18   37 1    
    39   18   88 1    
    40   19   20 am   BACKBONE|DICT|INTERRES
    41   19   89 1    
    42   20   21 2    
    43   20   22 1    
    44   22   23 1    
    45   22   24 1    
    46   22   90 1    
    47   23   91 1    
    48   23   92 1    
    49   23   93 1    
    50   24   25 am   BACKBONE|DICT|INTERRES
    51   24   94 1    
    52   25   26 2    
    53   25   27 1    
    54   27   28 1    
    55   27   29 1    
    56   27   95 1    
    57   28   96 1    
    58   28   97 1    
    59   28   98 1    
    60   29   30 am   BACKBONE|DICT|INTERRES
    61   29   99 1    
    62   30   31 2    
    63   30   32 1    
    64   32   33 1    
    65   32   34 1    
    66   32  100 1    
    67   33  101 1    
    68   33  102 1    
    69   33  103 1    
    70   34   35 am   BACKBONE|DICT|INTERRES
    71   34  104 1    
    72   35   36 2    
    73   37   38 2    
    74   37   39 am   BACKBONE|DICT|INTERRES
    75   39   40 1    
    76   39  105 1    
    77   40   41 1    
    78   40   42 1    
    79   40  106 1    
    80   41  107 1    
    81   41  108 1    
    82   41  109 1    
    83   42   43 2    
    84   42   44 am   BACKBONE|DICT|INTERRES
    85   44   45 1    
    86   44  110 1    
    87   45   46 1    
    88   45   47 1    
    89   45  111 1    
    90   46  112 1    
    91   46  113 1    
    92   46  114 1    
    93   47   48 2    
    94   47   49 am   BACKBONE|DICT|INTERRES
    95   49   50 1    
    96   49  115 1    
    97   50   51 1    
    98   50   52 1    
    99   50  116 1    
   100   51  117 1    
   101   51  118 1    
   102   51  119 1    
   103   52   53 2    
   104   52   54 am   BACKBONE|DICT|INTERRES
   105   54   55 1    
   106   54  120 1    
   107   55   56 1    
   108   55   57 1    
   109   55  121 1    
   110   56  122 1    
   111   56  123 1    
   112   56  124 1    
   113   57   58 2    
   114   57   59 am   BACKBONE|DICT|INTERRES
   115   59   60 1    
   116   59  125 1    
   117   60   61 1    
   118   60   62 1    
   119   60  126 1    
   120   61  127 1    
   121   61  128 1    
   122   61  129 1    
   123   62   63 2    
   124   62   64 am   BACKBONE|DICT|INTERRES
   125   64   65 1    
   126   64  130 1    
   127   65   66 1    
   128   65   69 1    
   129   65  131 1    
   130   66   67 am   BACKBONE|DICT|INTERRES
   131   66   68 2    
   132   67  132 1    
   133   67  133 1    
   134   69   70 1    
   135   69  134 1    
   136   69  135 1    
   137   70   71 1    
   138   71  136 1    
   139   71  137 1    
@<TRIPOS>SUBSTRUCTURE
     1 UNK         1 GROUP             0       ****    0 ROOT    
