@<TRIPOS>MOLECULE
3R137
137   139    1
SMALL
USER_CHARGES


@<TRIPOS>ATOM
      1 CA         26.3744   -5.6340    1.5302 C.3       0 UNK        -0.2020 
      2 C          26.7428   -4.3301    0.8394 C.2       0 UNK         0.4855 
      3 O          26.3503   -3.2582    1.3010 O.2       0 UNK        -0.5197 
      4 N          27.4789   -4.4074   -0.2763 N.am      1 UNK        -0.4892 
      5 CA         27.9753   -3.2746   -1.0723 C.3       1 UNK         0.0835 
      6 C6         29.2377   -3.6770   -1.8848 C.3       12 UNK        -0.0855 
      7 S7         30.7062   -3.7458   -0.8021 S.3       12 UNK        -0.2931 
      8 C8         32.0068   -2.9709   -1.8317 C.3       12 UNK         0.0378 
      9 C9         31.6615   -1.5942   -2.4045 C.ar      12 UNK        -0.0802 
     10 C10        32.1348   -1.2522   -3.6742 C.ar      12 UNK        -0.0944 
     11 C11        31.8267   -0.0160   -4.2490 C.ar      12 UNK        -0.0787 
     12 C12        31.0514    0.8982   -3.5284 C.ar      12 UNK        -0.0862 
     13 C13        30.5824    0.5827   -2.2469 C.ar      12 UNK        -0.0733 
     14 C14        30.8985   -0.6621   -1.6910 C.ar      12 UNK        -0.0832 
     15 C15        29.7732    1.5853   -1.4254 C.3       12 UNK         0.0240 
     16 S16        28.4910    2.4817   -2.3668 S.3       12 UNK        -0.2522 
     17 C17        27.4194    1.1292   -2.9590 C.3       12 UNK        -0.0967 
     18 CA         27.3787    1.0664   -4.5082 C.3       5 UNK         0.0660 
     19 N          27.2868   -0.3141   -4.9980 N.am      5 UNK        -0.4015 
     20 C          27.4350   -0.7049   -6.2722 C.2       4 UNK         0.4946 
     21 O          27.6472    0.0742   -7.2015 O.2       4 UNK        -0.5353 
     22 CA         27.2718   -2.2032   -6.5656 C.3       4 UNK         0.0277 
     23 CB         28.5726   -2.9590   -6.2594 C.3       4 UNK        -0.1981 
     24 N          26.1826   -2.7763   -5.7760 N.am      4 UNK        -0.4209 
     25 C          24.9148   -2.8922   -6.1921 C.2       3 UNK         0.4942 
     26 O          24.5344   -2.5995   -7.3259 O.2       3 UNK        -0.5208 
     27 CA         23.8878   -3.4114   -5.1670 C.3       3 UNK         0.0250 
     28 CB         23.7710   -4.9418   -5.2510 C.3       3 UNK        -0.1990 
     29 N          24.1796   -3.0223   -3.7827 N.am      3 UNK        -0.4232 
     30 C          24.2036   -1.7580   -3.3387 C.2       2 UNK         0.4993 
     31 O          23.9754   -0.7791   -4.0486 O.2       2 UNK        -0.5286 
     32 CA         24.5942   -1.5370   -1.8672 C.3       2 UNK         0.0209 
     33 CB         23.3686   -1.7187   -0.9576 C.3       2 UNK        -0.1931 
     34 N          25.7028   -2.3549   -1.3512 N.am      2 UNK        -0.4546 
     35 C          26.8760   -2.6216   -1.9433 C.2       1 UNK         0.5154 
     36 O          27.1125   -2.3475   -3.1195 O.2       1 UNK        -0.5181 
     37 C          26.3001    2.0058   -5.0982 C.2       5 UNK         0.5014 
     38 O          26.5075    3.2184   -5.1270 O.2       5 UNK        -0.5248 
     39 N          25.1910    1.4429   -5.6019 N.am      6 UNK        -0.4434 
     40 CA         24.1927    2.1382   -6.4193 C.3       6 UNK         0.0363 
     41 CB         23.0327    1.1777   -6.7265 C.3       6 UNK        -0.1936 
     42 C          24.7675    2.7225   -7.7265 C.2       6 UNK         0.5081 
     43 O          24.2923    3.7672   -8.1728 O.2       6 UNK        -0.5248 
     44 N          25.7792    2.0580   -8.3040 N.am      7 UNK        -0.4718 
     45 CA         26.5639    2.5599   -9.4336 C.3       7 UNK         0.0273 
     46 CB         26.9155    1.3963  -10.3763 C.3       7 UNK        -0.1935 
     47 C          27.8403    3.2606   -8.9424 C.2       7 UNK         0.5018 
     48 O          28.1839    4.3193   -9.4686 O.2       7 UNK        -0.5186 
     49 N          28.5115    2.6532   -7.9498 N.am      8 UNK        -0.4240 
     50 CA         29.7628    3.0874   -7.3110 C.3       8 UNK         0.0235 
     51 CB         29.5729    4.4149   -6.5470 C.3       8 UNK        -0.2000 
     52 C          30.9726    3.1246   -8.2672 C.2       8 UNK         0.4941 
     53 O          31.9296    3.8602   -8.0182 O.2       8 UNK        -0.5273 
     54 N          30.9242    2.3155   -9.3291 N.am      9 UNK        -0.4262 
     55 CA         31.9793    2.1198  -10.3132 C.3       9 UNK         0.0264 
     56 CB         31.8792    3.1863  -11.4178 C.3       9 UNK        -0.1955 
     57 C          31.8056    0.7104  -10.8822 C.2       9 UNK         0.5031 
     58 O          30.6670    0.2470  -10.9952 O.2       9 UNK        -0.5390 
     59 N          32.9309    0.0616  -11.2175 N.am      10 UNK        -0.4204 
     60 CA         33.0345   -1.3243  -11.7009 C.3       10 UNK         0.0237 
     61 CB         32.4555   -1.4493  -13.1272 C.3       10 UNK        -0.1985 
     62 C          32.4342   -2.3502  -10.7145 C.2       10 UNK         0.4970 
     63 O          31.7753   -3.3024  -11.1367 O.2       10 UNK        -0.4914 
     64 N          32.6631   -2.1200   -9.4142 N.am      11 UNK        -0.4285 
     65 CA         32.1044   -2.9089   -8.3048 C.3       11 UNK         0.1007 
     66 C          32.6701   -4.3535   -8.1691 C.2       11 UNK         0.5703 
     67 N          33.7782   -4.6995   -8.8141 N.am      11 UNK        -0.7361 
     68 O          32.0877   -5.1761   -7.4668 O.2       11 UNK        -0.4986 
     69 C69        32.2088   -2.1553   -6.9516 C.3       12 UNK        -0.0947 
     70 S70        31.4484   -0.4934   -6.9695 S.3       12 UNK        -0.2240 
     71 C71        32.3601    0.3437   -5.6314 C.3       12 UNK         0.0194 
     72 H72        26.7835   -6.5008    1.0116 H         1 UNK         0.0906 
     73 H73        26.7570   -5.6380    2.5505 H         1 UNK         0.0906 
     74 H74        25.2910   -5.7434    1.5721 H         1 UNK         0.0906 
     75 H75        27.7554   -5.3189   -0.6132 H         1 UNK         0.3140 
     76 H76        28.2704   -2.4834   -0.3790 H         1 UNK         0.1085 
     77 H77        29.0997   -4.6422   -2.3748 H         1 UNK         0.0836 
     78 H78        29.4423   -2.9706   -2.6893 H         1 UNK         0.0836 
     79 H79        32.2421   -3.6627   -2.6423 H         1 UNK         0.0731 
     80 H80        32.9144   -2.8793   -1.2340 H         1 UNK         0.0731 
     81 H81        32.7499   -1.9541   -4.2184 H         1 UNK         0.1312 
     82 H82        30.8232    1.8632   -3.9594 H         1 UNK         0.1406 
     83 H83        30.5513   -0.9074   -0.6968 H         1 UNK         0.1631 
     84 H84        30.4617    2.3152   -0.9981 H         1 UNK         0.0717 
     85 H85        29.2902    1.0895   -0.5818 H         1 UNK         0.0717 
     86 H86        27.8038    0.1954   -2.5487 H         1 UNK         0.0934 
     87 H87        26.4221    1.2478   -2.5319 H         1 UNK         0.0934 
     88 H88        28.3349    1.4317   -4.8886 H         1 UNK         0.0739 
     89 H89        27.1493   -1.0354   -4.2921 H         1 UNK         0.3093 
     90 H90        27.0569   -2.3175   -7.6304 H         1 UNK         0.0818 
     91 H91        28.4652   -4.0287   -6.4387 H         1 UNK         0.0819 
     92 H92        29.3722   -2.6033   -6.9053 H         1 UNK         0.0819 
     93 H93        28.8979   -2.8204   -5.2275 H         1 UNK         0.0819 
     94 H94        26.3942   -2.9790   -4.8038 H         1 UNK         0.3041 
     95 H95        22.9199   -2.9802   -5.4321 H         1 UNK         0.0784 
     96 H96        23.5294   -5.2593   -6.2666 H         1 UNK         0.0793 
     97 H97        24.7023   -5.4345   -4.9685 H         1 UNK         0.0793 
     98 H98        22.9806   -5.3165   -4.6004 H         1 UNK         0.0793 
     99 H99        24.3982   -3.7623   -3.1314 H         1 UNK         0.3024 
    100 H100       24.9142   -0.4971   -1.7858 H         1 UNK         0.1171 
    101 H101       23.5875   -1.4199    0.0678 H         1 UNK         0.0786 
    102 H102       22.5316   -1.1074   -1.2989 H         1 UNK         0.0786 
    103 H103       23.0304   -2.7555   -0.9389 H         1 UNK         0.0786 
    104 H104       25.6397   -2.6224   -0.3723 H         1 UNK         0.2977 
    105 H105       25.0254    0.4584   -5.4252 H         1 UNK         0.3127 
    106 H106       23.8041    2.9708   -5.8294 H         1 UNK         0.0770 
    107 H107       22.5460    0.8386   -5.8118 H         1 UNK         0.0814 
    108 H108       23.3727    0.2957   -7.2713 H         1 UNK         0.0814 
    109 H109       22.2708    1.6660   -7.3357 H         1 UNK         0.0814 
    110 H110       26.1351    1.2230   -7.8504 H         1 UNK         0.2983 
    111 H111       25.9795    3.2875  -10.0014 H         1 UNK         0.0947 
    112 H112       27.5028    0.6252   -9.8758 H         1 UNK         0.0806 
    113 H113       27.5011    1.7475  -11.2272 H         1 UNK         0.0806 
    114 H114       26.0166    0.9251  -10.7738 H         1 UNK         0.0806 
    115 H115       28.1622    1.7471   -7.6391 H         1 UNK         0.3000 
    116 H116       29.9958    2.3188   -6.5732 H         1 UNK         0.0850 
    117 H117       28.7397    4.3577   -5.8483 H         1 UNK         0.0810 
    118 H118       29.3867    5.2487   -7.2242 H         1 UNK         0.0810 
    119 H119       30.4604    4.6622   -5.9634 H         1 UNK         0.0810 
    120 H120       30.1308    1.6972   -9.4505 H         1 UNK         0.3040 
    121 H121       32.9511    2.1884   -9.8193 H         1 UNK         0.0766 
    122 H122       32.6534    3.0433  -12.1725 H         1 UNK         0.0812 
    123 H123       32.0028    4.1904  -11.0117 H         1 UNK         0.0812 
    124 H124       30.9143    3.1483  -11.9255 H         1 UNK         0.0812 
    125 H125       33.8113    0.5434  -11.0919 H         1 UNK         0.3205 
    126 H126       34.0999   -1.5519  -11.7594 H         1 UNK         0.0754 
    127 H127       31.3773   -1.2860  -13.1424 H         1 UNK         0.0769 
    128 H128       32.6397   -2.4422  -13.5395 H         1 UNK         0.0769 
    129 H129       32.9128   -0.7289  -13.8053 H         1 UNK         0.0769 
    130 H130       33.2094   -1.3148   -9.1496 H         1 UNK         0.2981 
    131 H131       31.0427   -3.0338   -8.5243 H         1 UNK         0.0541 
    132 H132       34.1308   -5.6389   -8.7202 H         1 UNK         0.3459 
    133 H133       34.2623   -4.0334   -9.3937 H         1 UNK         0.3459 
    134 H134       31.7188   -2.7306   -6.1643 H         1 UNK         0.0612 
    135 H135       33.2566   -2.0627   -6.6610 H         1 UNK         0.0612 
    136 H136       32.2892    1.4205   -5.7913 H         1 UNK         0.0624 
    137 H137       33.4218    0.1024   -5.6960 H         1 UNK         0.0624 
@<TRIPOS>BOND
     1    1    2 1    
     2    1   72 1    
     3    1   73 1    
     4    1   74 1    
     5    2    3 2    
     6    2    4 am   BACKBONE|DICT|INTERRES
     7    4    5 1    
     8    4   75 1    
     9    5    6 1    
    10    5   35 1    
    11    5   76 1    
    12    6    7 1    
    13    6   77 1    
    14    6   78 1    
    15    7    8 1    
    16    8    9 1    
    17    8   79 1    
    18    8   80 1    
    19    9   10 ar   
    20    9   14 ar   
    21   10   11 ar   
    22   10   81 1    
    23   11   12 ar   
    24   11   71 1    
    25   12   13 ar   
    26   12   82 1    
    27   13   14 ar   
    28   13   15 1    
    29   14   83 1    
    30   15   16 1    
    31   15   84 1    
    32   15   85 1    
    33   16   17 1    
    34   17   18 1    
    35   17   86 1    
    36   17   87 1    
    37   18   19 1    
    38   18   37 1    
    39   18   88 1    
    40   19   20 am   BACKBONE|DICT|INTERRES
    41   19   89 1    
    42   20   21 2    
    43   20   22 1    
    44   22   23 1    
    45   22   24 1    
    46   22   90 1    
    47   23   91 1    
    48   23   92 1    
    49   23   93 1    
    50   24   25 am   BACKBONE|DICT|INTERRES
    51   24   94 1    
    52   25   26 2    
    53   25   27 1    
    54   27   28 1    
    55   27   29 1    
    56   27   95 1    
    57   28   96 1    
    58   28   97 1    
    59   28   98 1    
    60   29   30 am   BACKBONE|DICT|INTERRES
    61   29   99 1    
    62   30   31 2    
    63   30   32 1    
    64   32   33 1    
    65   32   34 1    
    66   32  100 1    
    67   33  101 1    
    68   33  102 1    
    69   33  103 1    
    70   34   35 am   BACKBONE|DICT|INTERRES
    71   34  104 1    
    72   35   36 2    
    73   37   38 2    
    74   37   39 am   BACKBONE|DICT|INTERRES
    75   39   40 1    
    76   39  105 1    
    77   40   41 1    
    78   40   42 1    
    79   40  106 1    
    80   41  107 1    
    81   41  108 1    
    82   41  109 1    
    83   42   43 2    
    84   42   44 am   BACKBONE|DICT|INTERRES
    85   44   45 1    
    86   44  110 1    
    87   45   46 1    
    88   45   47 1    
    89   45  111 1    
    90   46  112 1    
    91   46  113 1    
    92   46  114 1    
    93   47   48 2    
    94   47   49 am   BACKBONE|DICT|INTERRES
    95   49   50 1    
    96   49  115 1    
    97   50   51 1    
    98   50   52 1    
    99   50  116 1    
   100   51  117 1    
   101   51  118 1    
   102   51  119 1    
   103   52   53 2    
   104   52   54 am   BACKBONE|DICT|INTERRES
   105   54   55 1    
   106   54  120 1    
   107   55   56 1    
   108   55   57 1    
   109   55  121 1    
   110   56  122 1    
   111   56  123 1    
   112   56  124 1    
   113   57   58 2    
   114   57   59 am   BACKBONE|DICT|INTERRES
   115   59   60 1    
   116   59  125 1    
   117   60   61 1    
   118   60   62 1    
   119   60  126 1    
   120   61  127 1    
   121   61  128 1    
   122   61  129 1    
   123   62   63 2    
   124   62   64 am   BACKBONE|DICT|INTERRES
   125   64   65 1    
   126   64  130 1    
   127   65   66 1    
   128   65   69 1    
   129   65  131 1    
   130   66   67 am   BACKBONE|DICT|INTERRES
   131   66   68 2    
   132   67  132 1    
   133   67  133 1    
   134   69   70 1    
   135   69  134 1    
   136   69  135 1    
   137   70   71 1    
   138   71  136 1    
   139   71  137 1    
@<TRIPOS>SUBSTRUCTURE
     1 UNK         1 GROUP             0       ****    0 ROOT    
