@<TRIPOS>MOLECULE
3R137
137   139    1
SMALL
USER_CHARGES


@<TRIPOS>ATOM
      1 CA         22.8092   -4.2948   -1.1972 C.3       0 UNK        -0.2020 
      2 C          24.1829   -3.6803   -0.9791 C.2       0 UNK         0.4855 
      3 O          24.2823   -2.5309   -0.5483 O.2       0 UNK        -0.5197 
      4 N          25.2463   -4.4415   -1.2680 N.am      1 UNK        -0.4892 
      5 CA         26.6398   -4.0211   -1.0894 C.3       1 UNK         0.0835 
      6 C6         27.6118   -5.2237   -1.1691 C.3       12 UNK        -0.0855 
      7 S7         29.1719   -4.9077   -0.2697 S.3       12 UNK        -0.2931 
      8 C8         30.4354   -5.5173   -1.4318 C.3       12 UNK         0.0378 
      9 C9         30.5772   -4.6286   -2.6596 C.ar      12 UNK        -0.0802 
     10 C10        31.3388   -3.4556   -2.6022 C.ar      12 UNK        -0.0944 
     11 C11        31.4898   -2.6540   -3.7388 C.ar      12 UNK        -0.0787 
     12 C12        30.8744   -3.0317   -4.9340 C.ar      12 UNK        -0.0862 
     13 C13        30.1034   -4.1944   -4.9999 C.ar      12 UNK        -0.0733 
     14 C14        29.9662   -4.9938   -3.8631 C.ar      12 UNK        -0.0832 
     15 C15        29.4083   -4.5825   -6.2950 C.3       12 UNK         0.0240 
     16 S16        27.7077   -3.9386   -6.3449 S.3       12 UNK        -0.2522 
     17 C17        28.0255   -2.1495   -6.4912 C.3       12 UNK        -0.0967 
     18 CA         26.7504   -1.3622   -6.8625 C.3       5 UNK         0.0660 
     19 N          25.7347   -1.4418   -5.8069 N.am      5 UNK        -0.4015 
     20 C          24.4343   -1.1693   -5.9787 C.2       4 UNK         0.4946 
     21 O          23.9447   -0.8068   -7.0492 O.2       4 UNK        -0.5353 
     22 CA         23.5401   -1.2851   -4.7369 C.3       4 UNK         0.0277 
     23 CB         23.1617   -2.7502   -4.4719 C.3       4 UNK        -0.1981 
     24 N          24.1852   -0.7042   -3.5559 N.am      4 UNK        -0.4209 
     25 C          24.2629    0.6154   -3.3257 C.2       3 UNK         0.4942 
     26 O          23.7248    1.4634   -4.0369 O.2       3 UNK        -0.5208 
     27 CA         25.0984    1.0784   -2.1199 C.3       3 UNK         0.0250 
     28 CB         24.2339    1.1410   -0.8509 C.3       3 UNK        -0.1990 
     29 N          26.2700    0.2343   -1.8772 N.am      3 UNK        -0.4232 
     30 C          27.3402    0.1700   -2.6842 C.2       2 UNK         0.4993 
     31 O          27.4743    0.8539   -3.6958 O.2       2 UNK        -0.5286 
     32 CA         28.4369   -0.8467   -2.3254 C.3       2 UNK         0.0209 
     33 CB         29.5402   -0.1704   -1.4968 C.3       2 UNK        -0.1931 
     34 N          27.9435   -2.0197   -1.6013 N.am      2 UNK        -0.4546 
     35 C          27.0269   -2.8827   -2.0584 C.2       1 UNK         0.5154 
     36 O          26.4816   -2.7821   -3.1629 O.2       1 UNK        -0.5181 
     37 C          27.1057    0.0818   -7.2799 C.2       5 UNK         0.5014 
     38 O          27.8202    0.2448   -8.2697 O.2       5 UNK        -0.5248 
     39 N          26.6111    1.1041   -6.5655 N.am      6 UNK        -0.4434 
     40 CA         26.8461    2.5327   -6.8160 C.3       6 UNK         0.0363 
     41 CB         26.1207    3.3607   -5.7432 C.3       6 UNK        -0.1936 
     42 C          26.4442    3.0234   -8.2199 C.2       6 UNK         0.5081 
     43 O          26.9908    4.0245   -8.6820 O.2       6 UNK        -0.5248 
     44 N          25.5247    2.3075   -8.8837 N.am      7 UNK        -0.4718 
     45 CA         25.1491    2.5289  -10.2830 C.3       7 UNK         0.0273 
     46 CB         23.8998    1.6948  -10.6085 C.3       7 UNK        -0.1935 
     47 C          26.2861    2.2091  -11.2737 C.2       7 UNK         0.5018 
     48 O          26.3634    2.8485  -12.3234 O.2       7 UNK        -0.5186 
     49 N          27.1435    1.2405  -10.9225 N.am      8 UNK        -0.4240 
     50 CA         28.3542    0.8843  -11.6648 C.3       8 UNK         0.0235 
     51 CB         28.5435   -0.6419  -11.6263 C.3       8 UNK        -0.2000 
     52 C          29.5921    1.5887  -11.0869 C.2       8 UNK         0.4941 
     53 O          30.4859    1.9489  -11.8531 O.2       8 UNK        -0.5273 
     54 N          29.6190    1.7599   -9.7546 N.am      9 UNK        -0.4262 
     55 CA         30.6939    2.3401   -8.9403 C.3       9 UNK         0.0264 
     56 CB         30.8870    3.8374   -9.2594 C.3       9 UNK        -0.1955 
     57 C          31.9964    1.5226   -9.0330 C.2       9 UNK         0.5031 
     58 O          33.0794    2.0914   -9.1840 O.2       9 UNK        -0.5390 
     59 N          31.8574    0.1911   -8.9429 N.am      10 UNK        -0.4204 
     60 CA         32.9162   -0.8049   -9.1500 C.3       10 UNK         0.0237 
     61 CB         32.3146   -2.2137   -9.0132 C.3       10 UNK        -0.1985 
     62 C          34.1526   -0.6568   -8.2427 C.2       10 UNK         0.4970 
     63 O          35.2519   -1.0049   -8.6760 O.2       10 UNK        -0.4914 
     64 N          33.9598   -0.1409   -7.0222 N.am      11 UNK        -0.4285 
     65 CA         35.0416    0.1699   -6.0721 C.3       11 UNK         0.1007 
     66 C          35.7277    1.5468   -6.3196 C.2       11 UNK         0.5703 
     67 N          35.2950    2.3588   -7.2779 N.am      11 UNK        -0.7361 
     68 O          36.6894    1.8829   -5.6322 O.2       11 UNK        -0.4986 
     69 C69        34.5848    0.0152   -4.5961 C.3       12 UNK        -0.0947 
     70 S70        34.0171   -1.6790   -4.2259 S.3       12 UNK        -0.2240 
     71 C71        32.3082   -1.3747   -3.6911 C.3       12 UNK         0.0194 
     72 H72        22.4957   -4.8370   -0.3056 H         1 UNK         0.0906 
     73 H73        22.8108   -4.9860   -2.0399 H         1 UNK         0.0906 
     74 H74        22.0706   -3.5190   -1.3965 H         1 UNK         0.0906 
     75 H75        25.1077   -5.3635   -1.6563 H         1 UNK         0.3140 
     76 H76        26.6941   -3.6154   -0.0759 H         1 UNK         0.1085 
     77 H77        27.1605   -6.0999   -0.7004 H         1 UNK         0.0836 
     78 H78        27.7978   -5.5089   -2.2046 H         1 UNK         0.0836 
     79 H79        31.3931   -5.5668   -0.9116 H         1 UNK         0.0731 
     80 H80        30.1970   -6.5422   -1.7208 H         1 UNK         0.0731 
     81 H81        31.8154   -3.1698   -1.6745 H         1 UNK         0.1312 
     82 H82        30.9888   -2.4118   -5.8116 H         1 UNK         0.1406 
     83 H83        29.3772   -5.8990   -3.9183 H         1 UNK         0.1631 
     84 H84        29.3774   -5.6691   -6.3885 H         1 UNK         0.0717 
     85 H85        29.9678   -4.2187   -7.1582 H         1 UNK         0.0717 
     86 H86        28.4364   -1.7803   -5.5509 H         1 UNK         0.0934 
     87 H87        28.8010   -2.0119   -7.2477 H         1 UNK         0.0934 
     88 H88        26.3272   -1.8265   -7.7562 H         1 UNK         0.0739 
     89 H89        26.0466   -1.7935   -4.9063 H         1 UNK         0.3093 
     90 H90        22.6185   -0.7349   -4.9402 H         1 UNK         0.0818 
     91 H91        22.7215   -3.2060   -5.3599 H         1 UNK         0.0819 
     92 H92        24.0260   -3.3533   -4.1913 H         1 UNK         0.0819 
     93 H93        22.4218   -2.8229   -3.6765 H         1 UNK         0.0819 
     94 H94        24.6772   -1.3388   -2.9392 H         1 UNK         0.3041 
     95 H95        25.4539    2.0882   -2.3369 H         1 UNK         0.0784 
     96 H96        23.3711    1.7918   -0.9996 H         1 UNK         0.0793 
     97 H97        23.8548    0.1579   -0.5694 H         1 UNK         0.0793 
     98 H98        24.7964    1.5389   -0.0061 H         1 UNK         0.0793 
     99 H99        26.2358   -0.3756   -1.0727 H         1 UNK         0.3024 
    100 H100       28.8743   -1.2015   -3.2604 H         1 UNK         0.1171 
    101 H101       29.1529    0.2318   -0.5598 H         1 UNK         0.0786 
    102 H102       30.3407   -0.8686   -1.2538 H         1 UNK         0.0786 
    103 H103       29.9880    0.6579   -2.0478 H         1 UNK         0.0786 
    104 H104       28.3612   -2.1987   -0.6989 H         1 UNK         0.2977 
    105 H105       26.0869    0.8830   -5.7305 H         1 UNK         0.3127 
    106 H106       27.9194    2.7038   -6.7119 H         1 UNK         0.0770 
    107 H107       26.2989    4.4276   -5.8847 H         1 UNK         0.0814 
    108 H108       25.0420    3.2031   -5.7754 H         1 UNK         0.0814 
    109 H109       26.4669    3.1085   -4.7412 H         1 UNK         0.0814 
    110 H110       25.1104    1.5125   -8.4164 H         1 UNK         0.2983 
    111 H111       24.8986    3.5854  -10.4024 H         1 UNK         0.0947 
    112 H112       24.0820    0.6267  -10.4823 H         1 UNK         0.0806 
    113 H113       23.5835    1.8524  -11.6406 H         1 UNK         0.0806 
    114 H114       23.0611    1.9700   -9.9687 H         1 UNK         0.0806 
    115 H115       27.0280    0.7993  -10.0168 H         1 UNK         0.3000 
    116 H116       28.2536    1.1870  -12.7094 H         1 UNK         0.0850 
    117 H117       29.4387   -0.9376  -12.1753 H         1 UNK         0.0810 
    118 H118       27.6985   -1.1557  -12.0847 H         1 UNK         0.0810 
    119 H119       28.6480   -1.0152  -10.6068 H         1 UNK         0.0810 
    120 H120       28.8550    1.3472   -9.2217 H         1 UNK         0.3040 
    121 H121       30.3623    2.2679   -7.9033 H         1 UNK         0.0766 
    122 H122       31.5977    4.2946   -8.5700 H         1 UNK         0.0812 
    123 H123       29.9483    4.3845   -9.1683 H         1 UNK         0.0812 
    124 H124       31.2694    3.9920  -10.2687 H         1 UNK         0.0812 
    125 H125       30.9229   -0.1705   -8.8193 H         1 UNK         0.3205 
    126 H126       33.2635   -0.6844  -10.1782 H         1 UNK         0.0754 
    127 H127       33.0683   -2.9800   -9.2010 H         1 UNK         0.0769 
    128 H128       31.5085   -2.3747   -9.7296 H         1 UNK         0.0769 
    129 H129       31.9172   -2.3883   -8.0135 H         1 UNK         0.0769 
    130 H130       33.0294    0.1339   -6.7496 H         1 UNK         0.2981 
    131 H131       35.8356   -0.5637   -6.2245 H         1 UNK         0.0541 
    132 H132       35.7640    3.2393   -7.4168 H         1 UNK         0.3459 
    133 H133       34.5179    2.1080   -7.8818 H         1 UNK         0.3459 
    134 H134       33.8018    0.7378   -4.3605 H         1 UNK         0.0612 
    135 H135       35.4096    0.2305   -3.9143 H         1 UNK         0.0612 
    136 H136       31.8457   -0.6236   -4.3334 H         1 UNK         0.0624 
    137 H137       32.3188   -0.9590   -2.6829 H         1 UNK         0.0624 
@<TRIPOS>BOND
     1    1    2 1    
     2    1   72 1    
     3    1   73 1    
     4    1   74 1    
     5    2    3 2    
     6    2    4 am   BACKBONE|DICT|INTERRES
     7    4    5 1    
     8    4   75 1    
     9    5    6 1    
    10    5   35 1    
    11    5   76 1    
    12    6    7 1    
    13    6   77 1    
    14    6   78 1    
    15    7    8 1    
    16    8    9 1    
    17    8   79 1    
    18    8   80 1    
    19    9   10 ar   
    20    9   14 ar   
    21   10   11 ar   
    22   10   81 1    
    23   11   12 ar   
    24   11   71 1    
    25   12   13 ar   
    26   12   82 1    
    27   13   14 ar   
    28   13   15 1    
    29   14   83 1    
    30   15   16 1    
    31   15   84 1    
    32   15   85 1    
    33   16   17 1    
    34   17   18 1    
    35   17   86 1    
    36   17   87 1    
    37   18   19 1    
    38   18   37 1    
    39   18   88 1    
    40   19   20 am   BACKBONE|DICT|INTERRES
    41   19   89 1    
    42   20   21 2    
    43   20   22 1    
    44   22   23 1    
    45   22   24 1    
    46   22   90 1    
    47   23   91 1    
    48   23   92 1    
    49   23   93 1    
    50   24   25 am   BACKBONE|DICT|INTERRES
    51   24   94 1    
    52   25   26 2    
    53   25   27 1    
    54   27   28 1    
    55   27   29 1    
    56   27   95 1    
    57   28   96 1    
    58   28   97 1    
    59   28   98 1    
    60   29   30 am   BACKBONE|DICT|INTERRES
    61   29   99 1    
    62   30   31 2    
    63   30   32 1    
    64   32   33 1    
    65   32   34 1    
    66   32  100 1    
    67   33  101 1    
    68   33  102 1    
    69   33  103 1    
    70   34   35 am   BACKBONE|DICT|INTERRES
    71   34  104 1    
    72   35   36 2    
    73   37   38 2    
    74   37   39 am   BACKBONE|DICT|INTERRES
    75   39   40 1    
    76   39  105 1    
    77   40   41 1    
    78   40   42 1    
    79   40  106 1    
    80   41  107 1    
    81   41  108 1    
    82   41  109 1    
    83   42   43 2    
    84   42   44 am   BACKBONE|DICT|INTERRES
    85   44   45 1    
    86   44  110 1    
    87   45   46 1    
    88   45   47 1    
    89   45  111 1    
    90   46  112 1    
    91   46  113 1    
    92   46  114 1    
    93   47   48 2    
    94   47   49 am   BACKBONE|DICT|INTERRES
    95   49   50 1    
    96   49  115 1    
    97   50   51 1    
    98   50   52 1    
    99   50  116 1    
   100   51  117 1    
   101   51  118 1    
   102   51  119 1    
   103   52   53 2    
   104   52   54 am   BACKBONE|DICT|INTERRES
   105   54   55 1    
   106   54  120 1    
   107   55   56 1    
   108   55   57 1    
   109   55  121 1    
   110   56  122 1    
   111   56  123 1    
   112   56  124 1    
   113   57   58 2    
   114   57   59 am   BACKBONE|DICT|INTERRES
   115   59   60 1    
   116   59  125 1    
   117   60   61 1    
   118   60   62 1    
   119   60  126 1    
   120   61  127 1    
   121   61  128 1    
   122   61  129 1    
   123   62   63 2    
   124   62   64 am   BACKBONE|DICT|INTERRES
   125   64   65 1    
   126   64  130 1    
   127   65   66 1    
   128   65   69 1    
   129   65  131 1    
   130   66   67 am   BACKBONE|DICT|INTERRES
   131   66   68 2    
   132   67  132 1    
   133   67  133 1    
   134   69   70 1    
   135   69  134 1    
   136   69  135 1    
   137   70   71 1    
   138   71  136 1    
   139   71  137 1    
@<TRIPOS>SUBSTRUCTURE
     1 UNK         1 GROUP             0       ****    0 ROOT    
