@<TRIPOS>MOLECULE
3R137
137   139    1
SMALL
USER_CHARGES


@<TRIPOS>ATOM
      1 CA         27.9122   -2.0940    2.2604 C.3       0 UNK        -0.2020 
      2 C          27.7686   -2.0572    0.7471 C.2       0 UNK         0.4855 
      3 O          27.8994   -0.9942    0.1436 O.2       0 UNK        -0.5197 
      4 N          27.4774   -3.2058    0.1250 N.am      1 UNK        -0.4892 
      5 CA         27.3813   -3.3954   -1.3322 C.3       1 UNK         0.0835 
      6 C6         27.7478   -4.8450   -1.7508 C.3       12 UNK        -0.0855 
      7 S7         29.3525   -5.3938   -1.0705 S.3       12 UNK        -0.2931 
      8 C8         30.4453   -5.2978   -2.5288 C.3       12 UNK         0.0378 
      9 C9         30.6142   -3.8932   -3.1060 C.ar      12 UNK        -0.0802 
     10 C10        30.7016   -3.7336   -4.4908 C.ar      12 UNK        -0.0944 
     11 C11        30.9137   -2.4725   -5.0529 C.ar      12 UNK        -0.0787 
     12 C12        31.0148   -1.3547   -4.2205 C.ar      12 UNK        -0.0862 
     13 C13        30.8920   -1.4888   -2.8324 C.ar      12 UNK        -0.0733 
     14 C14        30.7252   -2.7652   -2.2838 C.ar      12 UNK        -0.0832 
     15 C15        30.9523   -0.2780   -1.9010 C.3       12 UNK         0.0240 
     16 S16        30.0728    1.2062   -2.5098 S.3       12 UNK        -0.2522 
     17 C17        28.4035    0.5691   -2.8906 C.3       12 UNK        -0.0967 
     18 CA         28.1058    0.6570   -4.4108 C.3       5 UNK         0.0660 
     19 N          27.3178   -0.4756   -4.8933 N.am      5 UNK        -0.4015 
     20 C          27.3806   -0.9546   -6.1432 C.2       4 UNK         0.4946 
     21 O          28.1340   -0.5157   -7.0144 O.2       4 UNK        -0.5353 
     22 CA         26.4239   -2.1063   -6.4899 C.3       4 UNK         0.0277 
     23 CB         27.0722   -3.4589   -6.1546 C.3       4 UNK        -0.1981 
     24 N          25.1268   -1.9944   -5.8146 N.am      4 UNK        -0.4209 
     25 C          24.2354   -1.0233   -6.0676 C.2       3 UNK         0.4942 
     26 O          24.4165   -0.1297   -6.8923 O.2       3 UNK        -0.5208 
     27 CA         22.9434   -1.0063   -5.2340 C.3       3 UNK         0.0250 
     28 CB         21.8721   -1.8916   -5.8898 C.3       3 UNK        -0.1990 
     29 N          23.1194   -1.4075   -3.8366 N.am      3 UNK        -0.4232 
     30 C          23.9887   -0.8754   -2.9659 C.2       2 UNK         0.4993 
     31 O          24.7877    0.0198   -3.2507 O.2       2 UNK        -0.5286 
     32 CA         24.0139   -1.4683   -1.5459 C.3       2 UNK         0.0209 
     33 CB         22.9095   -2.5146   -1.2684 C.3       2 UNK        -0.1931 
     34 N          25.3299   -2.0295   -1.2260 N.am      2 UNK        -0.4546 
     35 C          26.0186   -2.9526   -1.9147 C.2       1 UNK         0.5154 
     36 O          25.6164   -3.4505   -2.9688 O.2       1 UNK        -0.5181 
     37 C          27.4450    1.9906   -4.8032 C.2       5 UNK         0.5014 
     38 O          28.1509    2.9100   -5.2171 O.2       5 UNK        -0.5248 
     39 N          26.1080    2.0652   -4.7076 N.am      6 UNK        -0.4434 
     40 CA         25.3062    3.2330   -5.0857 C.3       6 UNK         0.0363 
     41 CB         23.8446    3.0179   -4.6646 C.3       6 UNK        -0.1936 
     42 C          25.3964    3.5702   -6.5840 C.2       6 UNK         0.5081 
     43 O          25.5393    4.7432   -6.9300 O.2       6 UNK        -0.5248 
     44 N          25.3413    2.5430   -7.4442 N.am      7 UNK        -0.4718 
     45 CA         25.5443    2.6727   -8.8909 C.3       7 UNK         0.0273 
     46 CB         24.9214    1.4598   -9.6017 C.3       7 UNK        -0.1935 
     47 C          27.0271    2.8056   -9.2818 C.2       7 UNK         0.5018 
     48 O          27.3049    3.2308  -10.4036 O.2       7 UNK        -0.5186 
     49 N          27.9341    2.4268   -8.3665 N.am      8 UNK        -0.4240 
     50 CA         29.3907    2.3456   -8.5142 C.3       8 UNK         0.0235 
     51 CB         30.0096    3.7507   -8.6663 C.3       8 UNK        -0.2000 
     52 C          29.7768    1.3862   -9.6519 C.2       8 UNK         0.4941 
     53 O          30.3466    1.8116  -10.6599 O.2       8 UNK        -0.5273 
     54 N          29.4160    0.1068   -9.4821 N.am      9 UNK        -0.4262 
     55 CA         29.5453   -0.9752  -10.4654 C.3       9 UNK         0.0264 
     56 CB         28.6662   -2.1553  -10.0091 C.3       9 UNK        -0.1955 
     57 C          31.0045   -1.3960  -10.7507 C.2       9 UNK         0.5031 
     58 O          31.3708   -2.5488  -10.5203 O.2       9 UNK        -0.5390 
     59 N          31.8074   -0.4419  -11.2417 N.am      10 UNK        -0.4204 
     60 CA         33.2213   -0.5267  -11.6391 C.3       10 UNK         0.0237 
     61 CB         33.4203   -1.5615  -12.7671 C.3       10 UNK        -0.1985 
     62 C          34.2164   -0.7384  -10.4789 C.2       10 UNK         0.4970 
     63 O          35.4105   -0.8985  -10.7385 O.2       10 UNK        -0.4914 
     64 N          33.7316   -0.7222   -9.2329 N.am      11 UNK        -0.4285 
     65 CA         34.5318   -0.8701   -8.0105 C.3       11 UNK         0.1007 
     66 C          35.3811    0.3920   -7.7017 C.2       11 UNK         0.5703 
     67 N          36.5312    0.2237   -7.0632 N.am      11 UNK        -0.7361 
     68 O          34.9921    1.5203   -7.9996 O.2       11 UNK        -0.4986 
     69 C69        33.6472   -1.2566   -6.7978 C.3       12 UNK        -0.0947 
     70 S70        32.7161   -2.7954   -7.1059 S.3       12 UNK        -0.2240 
     71 C71        31.0449   -2.3352   -6.5606 C.3       12 UNK         0.0194 
     72 H72        27.1804   -1.4326    2.7233 H         1 UNK         0.0906 
     73 H73        27.7651   -3.0972    2.6601 H         1 UNK         0.0906 
     74 H74        28.9072   -1.7567    2.5493 H         1 UNK         0.0906 
     75 H75        27.3659   -4.0480    0.6723 H         1 UNK         0.3140 
     76 H76        28.1066   -2.7327   -1.8028 H         1 UNK         0.1085 
     77 H77        27.7747   -4.9379   -2.8385 H         1 UNK         0.0836 
     78 H78        26.9816   -5.5431   -1.4085 H         1 UNK         0.0836 
     79 H79        30.0621   -5.9806   -3.2890 H         1 UNK         0.0731 
     80 H80        31.4300   -5.6736   -2.2484 H         1 UNK         0.0731 
     81 H81        30.6322   -4.5972   -5.1383 H         1 UNK         0.1312 
     82 H82        31.1823   -0.3793   -4.6545 H         1 UNK         0.1406 
     83 H83        30.6645   -2.8801   -1.2100 H         1 UNK         0.1631 
     84 H84        31.9983   -0.0194   -1.7329 H         1 UNK         0.0717 
     85 H85        30.5368   -0.5323   -0.9243 H         1 UNK         0.0717 
     86 H86        28.3457   -0.4642   -2.5491 H         1 UNK         0.0934 
     87 H87        27.6635    1.1053   -2.2923 H         1 UNK         0.0934 
     88 H88        29.0575    0.6228   -4.9447 H         1 UNK         0.0739 
     89 H89        26.6095   -0.8364   -4.2681 H         1 UNK         0.3093 
     90 H90        26.2437   -2.0712   -7.5666 H         1 UNK         0.0818 
     91 H91        27.9967   -3.5955   -6.7161 H         1 UNK         0.0819 
     92 H92        26.4149   -4.2902   -6.4095 H         1 UNK         0.0819 
     93 H93        27.3218   -3.5395   -5.0960 H         1 UNK         0.0819 
     94 H94        24.9285   -2.6647   -5.0815 H         1 UNK         0.3041 
     95 H95        22.5725    0.0193   -5.2279 H         1 UNK         0.0784 
     96 H96        21.7068   -1.5994   -6.9280 H         1 UNK         0.0793 
     97 H97        22.1605   -2.9437   -5.8893 H         1 UNK         0.0793 
     98 H98        20.9147   -1.8046   -5.3757 H         1 UNK         0.0793 
     99 H99        22.5315   -2.1603   -3.5093 H         1 UNK         0.3024 
    100 H100       23.8557   -0.6272   -0.8687 H         1 UNK         0.1171 
    101 H101       22.9428   -2.8458   -0.2303 H         1 UNK         0.0786 
    102 H102       21.9150   -2.0972   -1.4327 H         1 UNK         0.0786 
    103 H103       23.0114   -3.4017   -1.8949 H         1 UNK         0.0786 
    104 H104       25.7962   -1.6300   -0.4214 H         1 UNK         0.2977 
    105 H105       25.6023    1.2790   -4.3018 H         1 UNK         0.3127 
    106 H106       25.6959    4.0889   -4.5303 H         1 UNK         0.0770 
    107 H107       23.3895    2.1893   -5.2059 H         1 UNK         0.0814 
    108 H108       23.2464    3.9069   -4.8685 H         1 UNK         0.0814 
    109 H109       23.7631    2.8084   -3.5978 H         1 UNK         0.0814 
    110 H110       25.1517    1.6050   -7.0959 H         1 UNK         0.2983 
    111 H111       25.0306    3.5722   -9.2377 H         1 UNK         0.0947 
    112 H112       24.9926    1.5625  -10.6853 H         1 UNK         0.0806 
    113 H113       23.8651    1.3526   -9.3543 H         1 UNK         0.0806 
    114 H114       25.4256    0.5315   -9.3292 H         1 UNK         0.0806 
    115 H115       27.5757    2.1008   -7.4797 H         1 UNK         0.3000 
    116 H116       29.7747    1.9129   -7.5886 H         1 UNK         0.0850 
    117 H117       31.0981    3.6932   -8.7041 H         1 UNK         0.0810 
    118 H118       29.7465    4.3894   -7.8230 H         1 UNK         0.0810 
    119 H119       29.6790    4.2471   -9.5791 H         1 UNK         0.0810 
    120 H120       28.9529   -0.1406   -8.6071 H         1 UNK         0.3040 
    121 H121       29.1364   -0.6119  -11.4105 H         1 UNK         0.0766 
    122 H122       27.6239   -1.8547   -9.9013 H         1 UNK         0.0812 
    123 H123       28.9980   -2.5570   -9.0515 H         1 UNK         0.0812 
    124 H124       28.6943   -2.9701  -10.7337 H         1 UNK         0.0812 
    125 H125       31.3932    0.4899  -11.2971 H         1 UNK         0.3205 
    126 H126       33.4636    0.4534  -12.0525 H         1 UNK         0.0754 
    127 H127       34.4327   -1.5133  -13.1702 H         1 UNK         0.0769 
    128 H128       32.7356   -1.3819  -13.5960 H         1 UNK         0.0769 
    129 H129       33.2618   -2.5812  -12.4149 H         1 UNK         0.0769 
    130 H130       32.7409   -0.5936   -9.1040 H         1 UNK         0.2981 
    131 H131       35.2285   -1.6932   -8.1837 H         1 UNK         0.0541 
    132 H132       36.8546   -0.6952   -6.8035 H         1 UNK         0.3459 
    133 H133       37.0905    1.0325   -6.8411 H         1 UNK         0.3459 
    134 H134       34.2593   -1.4130   -5.9078 H         1 UNK         0.0612 
    135 H135       32.9582   -0.4455   -6.5568 H         1 UNK         0.0612 
    136 H136       30.7998   -1.3248   -6.8910 H         1 UNK         0.0624 
    137 H137       30.3284   -2.9958   -7.0489 H         1 UNK         0.0624 
@<TRIPOS>BOND
     1    1    2 1    
     2    1   72 1    
     3    1   73 1    
     4    1   74 1    
     5    2    3 2    
     6    2    4 am   BACKBONE|DICT|INTERRES
     7    4    5 1    
     8    4   75 1    
     9    5    6 1    
    10    5   35 1    
    11    5   76 1    
    12    6    7 1    
    13    6   77 1    
    14    6   78 1    
    15    7    8 1    
    16    8    9 1    
    17    8   79 1    
    18    8   80 1    
    19    9   10 ar   
    20    9   14 ar   
    21   10   11 ar   
    22   10   81 1    
    23   11   12 ar   
    24   11   71 1    
    25   12   13 ar   
    26   12   82 1    
    27   13   14 ar   
    28   13   15 1    
    29   14   83 1    
    30   15   16 1    
    31   15   84 1    
    32   15   85 1    
    33   16   17 1    
    34   17   18 1    
    35   17   86 1    
    36   17   87 1    
    37   18   19 1    
    38   18   37 1    
    39   18   88 1    
    40   19   20 am   BACKBONE|DICT|INTERRES
    41   19   89 1    
    42   20   21 2    
    43   20   22 1    
    44   22   23 1    
    45   22   24 1    
    46   22   90 1    
    47   23   91 1    
    48   23   92 1    
    49   23   93 1    
    50   24   25 am   BACKBONE|DICT|INTERRES
    51   24   94 1    
    52   25   26 2    
    53   25   27 1    
    54   27   28 1    
    55   27   29 1    
    56   27   95 1    
    57   28   96 1    
    58   28   97 1    
    59   28   98 1    
    60   29   30 am   BACKBONE|DICT|INTERRES
    61   29   99 1    
    62   30   31 2    
    63   30   32 1    
    64   32   33 1    
    65   32   34 1    
    66   32  100 1    
    67   33  101 1    
    68   33  102 1    
    69   33  103 1    
    70   34   35 am   BACKBONE|DICT|INTERRES
    71   34  104 1    
    72   35   36 2    
    73   37   38 2    
    74   37   39 am   BACKBONE|DICT|INTERRES
    75   39   40 1    
    76   39  105 1    
    77   40   41 1    
    78   40   42 1    
    79   40  106 1    
    80   41  107 1    
    81   41  108 1    
    82   41  109 1    
    83   42   43 2    
    84   42   44 am   BACKBONE|DICT|INTERRES
    85   44   45 1    
    86   44  110 1    
    87   45   46 1    
    88   45   47 1    
    89   45  111 1    
    90   46  112 1    
    91   46  113 1    
    92   46  114 1    
    93   47   48 2    
    94   47   49 am   BACKBONE|DICT|INTERRES
    95   49   50 1    
    96   49  115 1    
    97   50   51 1    
    98   50   52 1    
    99   50  116 1    
   100   51  117 1    
   101   51  118 1    
   102   51  119 1    
   103   52   53 2    
   104   52   54 am   BACKBONE|DICT|INTERRES
   105   54   55 1    
   106   54  120 1    
   107   55   56 1    
   108   55   57 1    
   109   55  121 1    
   110   56  122 1    
   111   56  123 1    
   112   56  124 1    
   113   57   58 2    
   114   57   59 am   BACKBONE|DICT|INTERRES
   115   59   60 1    
   116   59  125 1    
   117   60   61 1    
   118   60   62 1    
   119   60  126 1    
   120   61  127 1    
   121   61  128 1    
   122   61  129 1    
   123   62   63 2    
   124   62   64 am   BACKBONE|DICT|INTERRES
   125   64   65 1    
   126   64  130 1    
   127   65   66 1    
   128   65   69 1    
   129   65  131 1    
   130   66   67 am   BACKBONE|DICT|INTERRES
   131   66   68 2    
   132   67  132 1    
   133   67  133 1    
   134   69   70 1    
   135   69  134 1    
   136   69  135 1    
   137   70   71 1    
   138   71  136 1    
   139   71  137 1    
@<TRIPOS>SUBSTRUCTURE
     1 UNK         1 GROUP             0       ****    0 ROOT    
