@<TRIPOS>MOLECULE
3R137
137   139    1
SMALL
USER_CHARGES


@<TRIPOS>ATOM
      1 CA         30.1740   -5.8138   -4.7295 C.3       0 UNK        -0.2020 
      2 C          29.3334   -5.4747   -5.9577 C.2       0 UNK         0.4855 
      3 O          29.7781   -5.7356   -7.0731 O.2       0 UNK        -0.5197 
      4 N          28.1233   -4.9164   -5.8299 N.am      1 UNK        -0.4892 
      5 CA         27.4017   -4.5944   -4.5958 C.3       1 UNK         0.0835 
      6 C6         27.8582   -3.2562   -3.9528 C.3       12 UNK        -0.0855 
      7 S7         27.4871   -3.1575   -2.1681 S.3       12 UNK        -0.2931 
      8 C8         29.1205   -3.4135   -1.3956 C.3       12 UNK         0.0378 
      9 C9         30.1149   -2.3243   -1.7745 C.ar      12 UNK        -0.0802 
     10 C10        31.1604   -2.5998   -2.6603 C.ar      12 UNK        -0.0944 
     11 C11        32.0477   -1.5935   -3.0543 C.ar      12 UNK        -0.0787 
     12 C12        31.9024   -0.3075   -2.5233 C.ar      12 UNK        -0.0862 
     13 C13        30.8857   -0.0284   -1.6044 C.ar      12 UNK        -0.0733 
     14 C14        29.9925   -1.0403   -1.2378 C.ar      12 UNK        -0.0832 
     15 C15        30.7764    1.3527   -0.9740 C.3       12 UNK         0.0240 
     16 S16        29.1760    2.1485   -1.3128 S.3       12 UNK        -0.2522 
     17 C17        29.3303    2.5973   -3.0756 C.3       12 UNK        -0.0967 
     18 CA         28.4613    1.7266   -4.0217 C.3       5 UNK         0.0660 
     19 N          27.0887    1.5558   -3.5316 N.am      5 UNK        -0.4015 
     20 C          26.1618    0.7563   -4.0735 C.2       4 UNK         0.4946 
     21 O          26.3404    0.0588   -5.0764 O.2       4 UNK        -0.5353 
     22 CA         24.7824    0.7960   -3.4128 C.3       4 UNK         0.0277 
     23 CB         23.9286    1.9298   -4.0130 C.3       4 UNK        -0.1981 
     24 N          24.1222   -0.4902   -3.6059 N.am      4 UNK        -0.4209 
     25 C          23.1072   -0.9577   -2.8689 C.2       3 UNK         0.4942 
     26 O          22.6093   -0.3249   -1.9358 O.2       3 UNK        -0.5208 
     27 CA         22.5586   -2.3678   -3.1744 C.3       3 UNK         0.0250 
     28 CB         21.0312   -2.3485   -3.3961 C.3       3 UNK        -0.1990 
     29 N          23.2414   -3.0914   -4.2560 N.am      3 UNK        -0.4232 
     30 C          23.2584   -2.8231   -5.5689 C.2       2 UNK         0.4993 
     31 O          22.6704   -1.8711   -6.0811 O.2       2 UNK        -0.5286 
     32 CA         24.1141   -3.7652   -6.4413 C.3       2 UNK         0.0209 
     33 CB         24.1468   -3.3429   -7.9225 C.3       2 UNK        -0.1931 
     34 N          25.4949   -3.8725   -5.9566 N.am      2 UNK        -0.4546 
     35 C          25.8974   -4.6013   -4.9036 C.2       1 UNK         0.5154 
     36 O          25.1300   -5.2697   -4.2096 O.2       1 UNK        -0.5181 
     37 C          28.4830    2.3269   -5.4410 C.2       5 UNK         0.5014 
     38 O          29.2525    1.8738   -6.2881 O.2       5 UNK        -0.5248 
     39 N          27.6202    3.3274   -5.6767 N.am      6 UNK        -0.4434 
     40 CA         27.4596    4.0083   -6.9632 C.3       6 UNK         0.0363 
     41 CB         26.5899    5.2615   -6.7775 C.3       6 UNK        -0.1936 
     42 C          26.8683    3.0981   -8.0503 C.2       6 UNK         0.5081 
     43 O          27.2823    3.1934   -9.2045 O.2       6 UNK        -0.5248 
     44 N          25.9510    2.2003   -7.6625 N.am      7 UNK        -0.4718 
     45 CA         25.3607    1.1900   -8.5469 C.3       7 UNK         0.0273 
     46 CB         24.1405    0.5581   -7.8623 C.3       7 UNK        -0.1935 
     47 C          26.3767    0.1150   -8.9715 C.2       7 UNK         0.5018 
     48 O          26.2970   -0.3849  -10.0933 O.2       7 UNK        -0.5186 
     49 N          27.3407   -0.1791   -8.0884 N.am      8 UNK        -0.4240 
     50 CA         28.5111   -1.0134   -8.3679 C.3       8 UNK         0.0235 
     51 CB         29.0085   -1.6196   -7.0457 C.3       8 UNK        -0.2000 
     52 C          29.6528   -0.2533   -9.0719 C.2       8 UNK         0.4941 
     53 O          30.6906   -0.8635   -9.3285 O.2       8 UNK        -0.5273 
     54 N          29.4834    1.0549   -9.3307 N.am      9 UNK        -0.4262 
     55 CA         30.4699    1.9867   -9.8968 C.3       9 UNK         0.0264 
     56 CB         30.7170    1.6723  -11.3872 C.3       9 UNK        -0.1955 
     57 C          31.7727    2.0490   -9.0732 C.2       9 UNK         0.5031 
     58 O          32.8658    2.0725   -9.6441 O.2       9 UNK        -0.5390 
     59 N          31.6283    2.0067   -7.7387 N.am      10 UNK        -0.4204 
     60 CA         32.6875    1.8986   -6.7273 C.3       10 UNK         0.0237 
     61 CB         33.5204    3.1961   -6.6681 C.3       10 UNK        -0.1985 
     62 C          33.5621    0.6346   -6.8751 C.2       10 UNK         0.4970 
     63 O          34.6928    0.6217   -6.3860 O.2       10 UNK        -0.4914 
     64 N          33.0255   -0.3984   -7.5406 N.am      11 UNK        -0.4285 
     65 CA         33.6852   -1.6693   -7.8749 C.3       11 UNK         0.1007 
     66 C          34.8520   -1.5287   -8.8993 C.2       11 UNK         0.5703 
     67 N          34.9398   -0.4385   -9.6552 N.am      11 UNK        -0.7361 
     68 O          35.6754   -2.4307   -9.0377 O.2       11 UNK        -0.4986 
     69 C69        34.0517   -2.5243   -6.6273 C.3       12 UNK        -0.0947 
     70 S70        32.6227   -2.7753   -5.5182 S.3       12 UNK        -0.2240 
     71 C71        33.1841   -1.8944   -4.0244 C.3       12 UNK         0.0194 
     72 H72        31.2123   -5.5328   -4.9035 H         1 UNK         0.0906 
     73 H73        29.8476   -5.3078   -3.8260 H         1 UNK         0.0906 
     74 H74        30.1443   -6.8871   -4.5454 H         1 UNK         0.0906 
     75 H75        27.5842   -4.7880   -6.6750 H         1 UNK         0.3140 
     76 H76        27.5686   -5.4088   -3.8874 H         1 UNK         0.1085 
     77 H77        27.3878   -2.3975   -4.4341 H         1 UNK         0.0836 
     78 H78        28.9252   -3.1081   -4.1090 H         1 UNK         0.0836 
     79 H79        29.4989   -4.4001   -1.6646 H         1 UNK         0.0731 
     80 H80        28.9974   -3.4241   -0.3117 H         1 UNK         0.0731 
     81 H81        31.2781   -3.5962   -3.0605 H         1 UNK         0.1312 
     82 H82        32.5960    0.4718   -2.8083 H         1 UNK         0.1406 
     83 H83        29.1957   -0.8260   -0.5382 H         1 UNK         0.1631 
     84 H84        31.5843    2.0068   -1.3056 H         1 UNK         0.0717 
     85 H85        30.8918    1.2517    0.1060 H         1 UNK         0.0717 
     86 H86        29.0540    3.6510   -3.1539 H         1 UNK         0.0934 
     87 H87        30.3788    2.5440   -3.3758 H         1 UNK         0.0934 
     88 H88        28.9091    0.7314   -4.0768 H         1 UNK         0.0739 
     89 H89        26.8602    2.0731   -2.6947 H         1 UNK         0.3093 
     90 H90        24.9164    0.9655   -2.3420 H         1 UNK         0.0818 
     91 H91        24.4216    2.8969   -3.9078 H         1 UNK         0.0819 
     92 H92        23.7380    1.7705   -5.0745 H         1 UNK         0.0819 
     93 H93        22.9634    2.0079   -3.5123 H         1 UNK         0.0819 
     94 H94        24.5042   -1.0534   -4.3547 H         1 UNK         0.3041 
     95 H95        22.7476   -2.9538   -2.2737 H         1 UNK         0.0784 
     96 H96        20.5140   -1.9490   -2.5229 H         1 UNK         0.0793 
     97 H97        20.7516   -1.7271   -4.2473 H         1 UNK         0.0793 
     98 H98        20.6419   -3.3518   -3.5695 H         1 UNK         0.0793 
     99 H99        23.7919   -3.8939   -3.9597 H         1 UNK         0.3024 
    100 H100       23.6450   -4.7508   -6.3889 H         1 UNK         0.1171 
    101 H101       24.6422   -2.3815   -8.0568 H         1 UNK         0.0786 
    102 H102       24.6737   -4.0772   -8.5320 H         1 UNK         0.0786 
    103 H103       23.1387   -3.2527   -8.3297 H         1 UNK         0.0786 
    104 H104       26.1710   -3.2927   -6.4311 H         1 UNK         0.2977 
    105 H105       27.0318    3.6431   -4.9197 H         1 UNK         0.3127 
    106 H106       28.4489    4.3253   -7.3010 H         1 UNK         0.0770 
    107 H107       25.5900    5.0133   -6.4193 H         1 UNK         0.0814 
    108 H108       26.4737    5.7973   -7.7208 H         1 UNK         0.0814 
    109 H109       27.0396    5.9556   -6.0673 H         1 UNK         0.0814 
    110 H110       25.6910    2.1621   -6.6882 H         1 UNK         0.2983 
    111 H111       25.0187    1.6932   -9.4542 H         1 UNK         0.0947 
    112 H112       23.6557   -0.1662   -8.5180 H         1 UNK         0.0806 
    113 H113       23.3927    1.3087   -7.6069 H         1 UNK         0.0806 
    114 H114       24.4163    0.0339   -6.9471 H         1 UNK         0.0806 
    115 H115       27.2992    0.2508   -7.1718 H         1 UNK         0.3000 
    116 H116       28.2147   -1.8316   -9.0276 H         1 UNK         0.0850 
    117 H117       29.3427   -0.8546   -6.3440 H         1 UNK         0.0810 
    118 H118       29.8449   -2.3010   -7.2092 H         1 UNK         0.0810 
    119 H119       28.2181   -2.1909   -6.5672 H         1 UNK         0.0810 
    120 H120       28.5982    1.4772   -9.0779 H         1 UNK         0.3040 
    121 H121       30.0249    2.9808   -9.8365 H         1 UNK         0.0766 
    122 H122       31.2050    0.7063  -11.5211 H         1 UNK         0.0812 
    123 H123       29.7829    1.6576  -11.9487 H         1 UNK         0.0812 
    124 H124       31.3579    2.4266  -11.8452 H         1 UNK         0.0812 
    125 H125       30.6806    1.9588   -7.3599 H         1 UNK         0.3205 
    126 H126       32.1744    1.7919   -5.7703 H         1 UNK         0.0754 
    127 H127       34.2121    3.1814   -5.8249 H         1 UNK         0.0769 
    128 H128       32.8821    4.0711   -6.5453 H         1 UNK         0.0769 
    129 H129       34.1133    3.3370   -7.5724 H         1 UNK         0.0769 
    130 H130       32.1065   -0.2916   -7.9542 H         1 UNK         0.2981 
    131 H131       32.9285   -2.2334   -8.4207 H         1 UNK         0.0541 
    132 H132       35.6906   -0.3603  -10.3222 H         1 UNK         0.3459 
    133 H133       34.2619    0.3080   -9.5666 H         1 UNK         0.3459 
    134 H134       34.8801   -2.0735   -6.0791 H         1 UNK         0.0612 
    135 H135       34.3981   -3.5121   -6.9353 H         1 UNK         0.0612 
    136 H136       33.6751   -0.9677   -4.3225 H         1 UNK         0.0624 
    137 H137       33.9380   -2.4978   -3.5176 H         1 UNK         0.0624 
@<TRIPOS>BOND
     1    1    2 1    
     2    1   72 1    
     3    1   73 1    
     4    1   74 1    
     5    2    3 2    
     6    2    4 am   BACKBONE|DICT|INTERRES
     7    4    5 1    
     8    4   75 1    
     9    5    6 1    
    10    5   35 1    
    11    5   76 1    
    12    6    7 1    
    13    6   77 1    
    14    6   78 1    
    15    7    8 1    
    16    8    9 1    
    17    8   79 1    
    18    8   80 1    
    19    9   10 ar   
    20    9   14 ar   
    21   10   11 ar   
    22   10   81 1    
    23   11   12 ar   
    24   11   71 1    
    25   12   13 ar   
    26   12   82 1    
    27   13   14 ar   
    28   13   15 1    
    29   14   83 1    
    30   15   16 1    
    31   15   84 1    
    32   15   85 1    
    33   16   17 1    
    34   17   18 1    
    35   17   86 1    
    36   17   87 1    
    37   18   19 1    
    38   18   37 1    
    39   18   88 1    
    40   19   20 am   BACKBONE|DICT|INTERRES
    41   19   89 1    
    42   20   21 2    
    43   20   22 1    
    44   22   23 1    
    45   22   24 1    
    46   22   90 1    
    47   23   91 1    
    48   23   92 1    
    49   23   93 1    
    50   24   25 am   BACKBONE|DICT|INTERRES
    51   24   94 1    
    52   25   26 2    
    53   25   27 1    
    54   27   28 1    
    55   27   29 1    
    56   27   95 1    
    57   28   96 1    
    58   28   97 1    
    59   28   98 1    
    60   29   30 am   BACKBONE|DICT|INTERRES
    61   29   99 1    
    62   30   31 2    
    63   30   32 1    
    64   32   33 1    
    65   32   34 1    
    66   32  100 1    
    67   33  101 1    
    68   33  102 1    
    69   33  103 1    
    70   34   35 am   BACKBONE|DICT|INTERRES
    71   34  104 1    
    72   35   36 2    
    73   37   38 2    
    74   37   39 am   BACKBONE|DICT|INTERRES
    75   39   40 1    
    76   39  105 1    
    77   40   41 1    
    78   40   42 1    
    79   40  106 1    
    80   41  107 1    
    81   41  108 1    
    82   41  109 1    
    83   42   43 2    
    84   42   44 am   BACKBONE|DICT|INTERRES
    85   44   45 1    
    86   44  110 1    
    87   45   46 1    
    88   45   47 1    
    89   45  111 1    
    90   46  112 1    
    91   46  113 1    
    92   46  114 1    
    93   47   48 2    
    94   47   49 am   BACKBONE|DICT|INTERRES
    95   49   50 1    
    96   49  115 1    
    97   50   51 1    
    98   50   52 1    
    99   50  116 1    
   100   51  117 1    
   101   51  118 1    
   102   51  119 1    
   103   52   53 2    
   104   52   54 am   BACKBONE|DICT|INTERRES
   105   54   55 1    
   106   54  120 1    
   107   55   56 1    
   108   55   57 1    
   109   55  121 1    
   110   56  122 1    
   111   56  123 1    
   112   56  124 1    
   113   57   58 2    
   114   57   59 am   BACKBONE|DICT|INTERRES
   115   59   60 1    
   116   59  125 1    
   117   60   61 1    
   118   60   62 1    
   119   60  126 1    
   120   61  127 1    
   121   61  128 1    
   122   61  129 1    
   123   62   63 2    
   124   62   64 am   BACKBONE|DICT|INTERRES
   125   64   65 1    
   126   64  130 1    
   127   65   66 1    
   128   65   69 1    
   129   65  131 1    
   130   66   67 am   BACKBONE|DICT|INTERRES
   131   66   68 2    
   132   67  132 1    
   133   67  133 1    
   134   69   70 1    
   135   69  134 1    
   136   69  135 1    
   137   70   71 1    
   138   71  136 1    
   139   71  137 1    
@<TRIPOS>SUBSTRUCTURE
     1 UNK         1 GROUP             0       ****    0 ROOT    
