@<TRIPOS>MOLECULE
3R137
137   139    1
SMALL
USER_CHARGES


@<TRIPOS>ATOM
      1 CA         27.3091   -0.3271    3.2128 C.3       0 UNK        -0.2020 
      2 C          27.4769   -1.7647    2.7267 C.2       0 UNK         0.4855 
      3 O          27.4376   -2.6852    3.5412 O.2       0 UNK        -0.5197 
      4 N          27.6807   -2.0134    1.4260 N.am      1 UNK        -0.4892 
      5 CA         27.6711   -1.0465    0.3217 C.3       1 UNK         0.0835 
      6 C6         28.4560   -1.5899   -0.9027 C.3       12 UNK        -0.0855 
      7 S7         27.7824   -3.1445   -1.5939 S.3       12 UNK        -0.2931 
      8 C8         29.2567   -4.2078   -1.6745 C.3       12 UNK         0.0378 
      9 C9         30.0523   -3.9682   -2.9499 C.ar      12 UNK        -0.0802 
     10 C10        31.0631   -3.0025   -2.9847 C.ar      12 UNK        -0.0944 
     11 C11        31.8105   -2.8034   -4.1489 C.ar      12 UNK        -0.0787 
     12 C12        31.5468   -3.5795   -5.2811 C.ar      12 UNK        -0.0862 
     13 C13        30.5355   -4.5433   -5.2618 C.ar      12 UNK        -0.0733 
     14 C14        29.7901   -4.7320   -4.0929 C.ar      12 UNK        -0.0832 
     15 C15        30.2667   -5.3937   -6.4975 C.3       12 UNK         0.0240 
     16 S16        29.6390   -4.4153   -7.9009 S.3       12 UNK        -0.2522 
     17 C17        28.0156   -3.8859   -7.2710 C.3       12 UNK        -0.0967 
     18 CA         27.4404   -2.6406   -7.9927 C.3       5 UNK         0.0660 
     19 N          26.0057   -2.5320   -7.7134 N.am      5 UNK        -0.4015 
     20 C          25.1599   -1.6302   -8.2280 C.2       4 UNK         0.4946 
     21 O          25.4724   -0.7989   -9.0773 O.2       4 UNK        -0.5353 
     22 CA         23.7298   -1.6223   -7.6540 C.3       4 UNK         0.0277 
     23 CB         22.8240   -2.5659   -8.4610 C.3       4 UNK        -0.1981 
     24 N          23.6503   -1.9645   -6.2265 N.am      4 UNK        -0.4209 
     25 C          24.3205   -1.3447   -5.2440 C.2       3 UNK         0.4942 
     26 O          25.1089   -0.4153   -5.4357 O.2       3 UNK        -0.5208 
     27 CA         24.1352   -1.9152   -3.8290 C.3       3 UNK         0.0250 
     28 CB         24.8383   -3.2782   -3.7085 C.3       3 UNK        -0.1990 
     29 N          24.6893   -1.0112   -2.8201 N.am      3 UNK        -0.4232 
     30 C          24.0928    0.1042   -2.3778 C.2       2 UNK         0.4993 
     31 O          22.9507    0.4337   -2.7042 O.2       2 UNK        -0.5286 
     32 CA         24.9040    1.0255   -1.4385 C.3       2 UNK         0.0209 
     33 CB         24.0327    1.6251   -0.3129 C.3       2 UNK        -0.1931 
     34 N          26.1355    0.4302   -0.8907 N.am      2 UNK        -0.4546 
     35 C          26.2340   -0.6168   -0.0564 C.2       1 UNK         0.5154 
     36 O          25.2626   -1.2378    0.3826 O.2       1 UNK        -0.5181 
     37 C          28.2057   -1.3467   -7.6245 C.2       5 UNK         0.5014 
     38 O          28.9912   -0.8374   -8.4290 O.2       5 UNK        -0.5248 
     39 N          27.9275   -0.8152   -6.4261 N.am      6 UNK        -0.4434 
     40 CA         28.5093    0.4274   -5.9244 C.3       6 UNK         0.0363 
     41 CB         28.3638    0.4858   -4.3972 C.3       6 UNK        -0.1936 
     42 C          27.8932    1.6627   -6.5957 C.2       6 UNK         0.5081 
     43 O          28.6249    2.6033   -6.8999 O.2       6 UNK        -0.5248 
     44 N          26.5793    1.6294   -6.8644 N.am      7 UNK        -0.4718 
     45 CA         25.8531    2.6768   -7.5943 C.3       7 UNK         0.0273 
     46 CB         24.3451    2.3898   -7.5517 C.3       7 UNK        -0.1935 
     47 C          26.3355    2.8433   -9.0478 C.2       7 UNK         0.5018 
     48 O          26.4089    3.9713   -9.5356 O.2       7 UNK        -0.5186 
     49 N          26.7036    1.7269   -9.6925 N.am      8 UNK        -0.4240 
     50 CA         27.3544    1.6780  -11.0054 C.3       8 UNK         0.0235 
     51 CB         27.2121    0.2576  -11.5791 C.3       8 UNK        -0.2000 
     52 C          28.8378    2.1006  -10.9834 C.2       8 UNK         0.4941 
     53 O          29.4387    2.1961  -12.0545 O.2       8 UNK        -0.5273 
     54 N          29.4032    2.3353   -9.7886 N.am      9 UNK        -0.4262 
     55 CA         30.7859    2.7367   -9.5148 C.3       9 UNK         0.0264 
     56 CB         31.0868    4.1334  -10.1004 C.3       9 UNK        -0.1955 
     57 C          31.8236    1.6741   -9.9197 C.2       9 UNK         0.5031 
     58 O          32.9328    2.0281  -10.3262 O.2       9 UNK        -0.5390 
     59 N          31.4777    0.3861   -9.7597 N.am      10 UNK        -0.4204 
     60 CA         32.3801   -0.7429  -10.0234 C.3       10 UNK         0.0237 
     61 CB         31.5723   -2.0479  -10.0281 C.3       10 UNK        -0.1985 
     62 C          33.5525   -0.8431   -9.0271 C.2       10 UNK         0.4970 
     63 O          34.5293   -1.5350   -9.3166 O.2       10 UNK        -0.4914 
     64 N          33.4382   -0.1546   -7.8842 N.am      11 UNK        -0.4285 
     65 CA         34.4607   -0.0494   -6.8338 C.3       11 UNK         0.1007 
     66 C          35.7420    0.7330   -7.2477 C.2       11 UNK         0.5703 
     67 N          35.7380    1.4917   -8.3387 N.am      11 UNK        -0.7361 
     68 O          36.7594    0.6460   -6.5645 O.2       11 UNK        -0.4986 
     69 C69        33.8760    0.5268   -5.5131 C.3       12 UNK        -0.0947 
     70 S70        32.3031   -0.2454   -5.0071 S.3       12 UNK        -0.2240 
     71 C71        32.9059   -1.7530   -4.1954 C.3       12 UNK         0.0194 
     72 H72        26.4252    0.1349    2.7746 H         1 UNK         0.0906 
     73 H73        27.1888   -0.3035    4.2958 H         1 UNK         0.0906 
     74 H74        28.1838    0.2741    2.9673 H         1 UNK         0.0906 
     75 H75        27.7462   -2.9764    1.1280 H         1 UNK         0.3140 
     76 H76        28.1895   -0.1458    0.6559 H         1 UNK         0.1085 
     77 H77        28.4960   -0.8474   -1.6992 H         1 UNK         0.0836 
     78 H78        29.4951   -1.7443   -0.6101 H         1 UNK         0.0836 
     79 H79        29.8835   -4.0568   -0.7943 H         1 UNK         0.0731 
     80 H80        28.9339   -5.2493   -1.6339 H         1 UNK         0.0731 
     81 H81        31.2704   -2.4070   -2.1066 H         1 UNK         0.1312 
     82 H82        32.1226   -3.4254   -6.1838 H         1 UNK         0.1406 
     83 H83        29.0083   -5.4792   -4.0676 H         1 UNK         0.1631 
     84 H84        29.5585   -6.1937   -6.2760 H         1 UNK         0.0717 
     85 H85        31.1943   -5.8823   -6.7990 H         1 UNK         0.0717 
     86 H86        28.0701   -3.7136   -6.1948 H         1 UNK         0.0934 
     87 H87        27.3444   -4.7366   -7.4016 H         1 UNK         0.0934 
     88 H88        27.5416   -2.7838   -9.0707 H         1 UNK         0.0739 
     89 H89        25.6354   -3.1754   -7.0307 H         1 UNK         0.3093 
     90 H90        23.3395   -0.6099   -7.7616 H         1 UNK         0.0818 
     91 H91        21.7848   -2.4905   -8.1404 H         1 UNK         0.0819 
     92 H92        22.8506   -2.3174   -9.5232 H         1 UNK         0.0819 
     93 H93        23.1321   -3.6076   -8.3627 H         1 UNK         0.0819 
     94 H94        23.0285   -2.7222   -5.9814 H         1 UNK         0.3041 
     95 H95        23.0674   -2.0460   -3.6405 H         1 UNK         0.0784 
     96 H96        25.8963   -3.2124   -3.9659 H         1 UNK         0.0793 
     97 H97        24.7666   -3.6721   -2.6942 H         1 UNK         0.0793 
     98 H98        24.3876   -4.0188   -4.3701 H         1 UNK         0.0793 
     99 H99        25.6304   -1.2034   -2.5121 H         1 UNK         0.3024 
    100 H100       25.2299    1.8545   -2.0694 H         1 UNK         0.1171 
    101 H101       23.2072    2.2077   -0.7237 H         1 UNK         0.0786 
    102 H102       24.6112    2.2942    0.3240 H         1 UNK         0.0786 
    103 H103       23.5970    0.8515    0.3200 H         1 UNK         0.0786 
    104 H104       26.9909    0.8734   -1.1976 H         1 UNK         0.2977 
    105 H105       27.1943   -1.2254   -5.8647 H         1 UNK         0.3127 
    106 H106       29.5757    0.4240   -6.1593 H         1 UNK         0.0770 
    107 H107       27.3196    0.4602   -4.0845 H         1 UNK         0.0814 
    108 H108       28.8057    1.4002   -3.9991 H         1 UNK         0.0814 
    109 H109       28.8814   -0.3533   -3.9326 H         1 UNK         0.0814 
    110 H110       26.0378    0.8364   -6.5275 H         1 UNK         0.2983 
    111 H111       26.0353    3.6208   -7.0760 H         1 UNK         0.0947 
    112 H112       23.7803    3.2275   -7.9626 H         1 UNK         0.0806 
    113 H113       23.9952    2.2289   -6.5316 H         1 UNK         0.0806 
    114 H114       24.0896    1.5099   -8.1403 H         1 UNK         0.0806 
    115 H115       26.5173    0.8297   -9.2508 H         1 UNK         0.3000 
    116 H116       26.8335    2.3695  -11.6708 H         1 UNK         0.0850 
    117 H117       27.6552    0.1861  -12.5732 H         1 UNK         0.0810 
    118 H118       26.1644   -0.0288  -11.6721 H         1 UNK         0.0810 
    119 H119       27.7058   -0.4815  -10.9465 H         1 UNK         0.0810 
    120 H120       28.8234    2.2375   -8.9626 H         1 UNK         0.3040 
    121 H121       30.8617    2.8208   -8.4300 H         1 UNK         0.0766 
    122 H122       32.0591    4.4965   -9.7654 H         1 UNK         0.0812 
    123 H123       30.3430    4.8644   -9.7835 H         1 UNK         0.0812 
    124 H124       31.1042    4.1217  -11.1906 H         1 UNK         0.0812 
    125 H125       30.5547    0.1549   -9.4012 H         1 UNK         0.3205 
    126 H126       32.8085   -0.6039  -11.0182 H         1 UNK         0.0754 
    127 H127       32.1947   -2.8954  -10.3181 H         1 UNK         0.0769 
    128 H128       30.7360   -2.0018  -10.7260 H         1 UNK         0.0769 
    129 H129       31.1729   -2.2623   -9.0375 H         1 UNK         0.0769 
    130 H130       32.5889    0.3628   -7.7202 H         1 UNK         0.2981 
    131 H131       34.7930   -1.0680   -6.6272 H         1 UNK         0.0541 
    132 H132       36.5754    1.9899   -8.5953 H         1 UNK         0.3459 
    133 H133       34.9085    1.5709   -8.9093 H         1 UNK         0.3459 
    134 H134       33.6879    1.5967   -5.6207 H         1 UNK         0.0612 
    135 H135       34.5944    0.4259   -4.6974 H         1 UNK         0.0612 
    136 H136       33.7642   -2.1520   -4.7372 H         1 UNK         0.0624 
    137 H137       33.2572   -1.5082   -3.1919 H         1 UNK         0.0624 
@<TRIPOS>BOND
     1    1    2 1    
     2    1   72 1    
     3    1   73 1    
     4    1   74 1    
     5    2    3 2    
     6    2    4 am   BACKBONE|DICT|INTERRES
     7    4    5 1    
     8    4   75 1    
     9    5    6 1    
    10    5   35 1    
    11    5   76 1    
    12    6    7 1    
    13    6   77 1    
    14    6   78 1    
    15    7    8 1    
    16    8    9 1    
    17    8   79 1    
    18    8   80 1    
    19    9   10 ar   
    20    9   14 ar   
    21   10   11 ar   
    22   10   81 1    
    23   11   12 ar   
    24   11   71 1    
    25   12   13 ar   
    26   12   82 1    
    27   13   14 ar   
    28   13   15 1    
    29   14   83 1    
    30   15   16 1    
    31   15   84 1    
    32   15   85 1    
    33   16   17 1    
    34   17   18 1    
    35   17   86 1    
    36   17   87 1    
    37   18   19 1    
    38   18   37 1    
    39   18   88 1    
    40   19   20 am   BACKBONE|DICT|INTERRES
    41   19   89 1    
    42   20   21 2    
    43   20   22 1    
    44   22   23 1    
    45   22   24 1    
    46   22   90 1    
    47   23   91 1    
    48   23   92 1    
    49   23   93 1    
    50   24   25 am   BACKBONE|DICT|INTERRES
    51   24   94 1    
    52   25   26 2    
    53   25   27 1    
    54   27   28 1    
    55   27   29 1    
    56   27   95 1    
    57   28   96 1    
    58   28   97 1    
    59   28   98 1    
    60   29   30 am   BACKBONE|DICT|INTERRES
    61   29   99 1    
    62   30   31 2    
    63   30   32 1    
    64   32   33 1    
    65   32   34 1    
    66   32  100 1    
    67   33  101 1    
    68   33  102 1    
    69   33  103 1    
    70   34   35 am   BACKBONE|DICT|INTERRES
    71   34  104 1    
    72   35   36 2    
    73   37   38 2    
    74   37   39 am   BACKBONE|DICT|INTERRES
    75   39   40 1    
    76   39  105 1    
    77   40   41 1    
    78   40   42 1    
    79   40  106 1    
    80   41  107 1    
    81   41  108 1    
    82   41  109 1    
    83   42   43 2    
    84   42   44 am   BACKBONE|DICT|INTERRES
    85   44   45 1    
    86   44  110 1    
    87   45   46 1    
    88   45   47 1    
    89   45  111 1    
    90   46  112 1    
    91   46  113 1    
    92   46  114 1    
    93   47   48 2    
    94   47   49 am   BACKBONE|DICT|INTERRES
    95   49   50 1    
    96   49  115 1    
    97   50   51 1    
    98   50   52 1    
    99   50  116 1    
   100   51  117 1    
   101   51  118 1    
   102   51  119 1    
   103   52   53 2    
   104   52   54 am   BACKBONE|DICT|INTERRES
   105   54   55 1    
   106   54  120 1    
   107   55   56 1    
   108   55   57 1    
   109   55  121 1    
   110   56  122 1    
   111   56  123 1    
   112   56  124 1    
   113   57   58 2    
   114   57   59 am   BACKBONE|DICT|INTERRES
   115   59   60 1    
   116   59  125 1    
   117   60   61 1    
   118   60   62 1    
   119   60  126 1    
   120   61  127 1    
   121   61  128 1    
   122   61  129 1    
   123   62   63 2    
   124   62   64 am   BACKBONE|DICT|INTERRES
   125   64   65 1    
   126   64  130 1    
   127   65   66 1    
   128   65   69 1    
   129   65  131 1    
   130   66   67 am   BACKBONE|DICT|INTERRES
   131   66   68 2    
   132   67  132 1    
   133   67  133 1    
   134   69   70 1    
   135   69  134 1    
   136   69  135 1    
   137   70   71 1    
   138   71  136 1    
   139   71  137 1    
@<TRIPOS>SUBSTRUCTURE
     1 UNK         1 GROUP             0       ****    0 ROOT    
