@<TRIPOS>MOLECULE
3R137
137   139    1
SMALL
USER_CHARGES


@<TRIPOS>ATOM
      1 CA         29.1577   -3.0421    3.2355 C.3       0 UNK        -0.2020 
      2 C          29.4215   -2.4056    1.8789 C.2       0 UNK         0.4855 
      3 O          30.0539   -1.3511    1.8101 O.2       0 UNK        -0.5197 
      4 N          28.9515   -3.0430    0.8003 N.am      1 UNK        -0.4892 
      5 CA         29.0702   -2.5557   -0.5787 C.3       1 UNK         0.0835 
      6 C6         28.7502   -3.6590   -1.6215 C.3       12 UNK        -0.0855 
      7 S7         29.6515   -5.2241   -1.3550 S.3       12 UNK        -0.2931 
      8 C8         31.2547   -4.8759   -2.1551 C.3       12 UNK         0.0378 
      9 C9         31.2230   -4.6737   -3.6713 C.ar      12 UNK        -0.0802 
     10 C10        32.3199   -4.0470   -4.2701 C.ar      12 UNK        -0.0944 
     11 C11        32.3620   -3.8412   -5.6503 C.ar      12 UNK        -0.0787 
     12 C12        31.2888   -4.2580   -6.4407 C.ar      12 UNK        -0.0862 
     13 C13        30.1811   -4.8844   -5.8621 C.ar      12 UNK        -0.0733 
     14 C14        30.1615   -5.1055   -4.4808 C.ar      12 UNK        -0.0832 
     15 C15        29.0074   -5.3152   -6.7362 C.3       12 UNK         0.0240 
     16 S16        27.4685   -4.4125   -6.3504 S.3       12 UNK        -0.2522 
     17 C17        28.0105   -2.6730   -6.4392 C.3       12 UNK        -0.0967 
     18 CA         27.0794   -1.7641   -7.2756 C.3       5 UNK         0.0660 
     19 N          25.6996   -1.7694   -6.7901 N.am      5 UNK        -0.4015 
     20 C          24.6451   -1.3508   -7.5037 C.2       4 UNK         0.4946 
     21 O          24.7248   -0.9495   -8.6656 O.2       4 UNK        -0.5353 
     22 CA         23.2794   -1.3334   -6.7918 C.3       4 UNK         0.0277 
     23 CB         22.5134   -2.6365   -7.0698 C.3       4 UNK        -0.1981 
     24 N          23.3717   -1.1207   -5.3422 N.am      4 UNK        -0.4209 
     25 C          23.8857   -0.0265   -4.7621 C.2       3 UNK         0.4942 
     26 O          24.3070    0.9374   -5.4024 O.2       3 UNK        -0.5208 
     27 CA         23.9775   -0.0018   -3.2223 C.3       3 UNK         0.0250 
     28 CB         23.6503   -1.3561   -2.5507 C.3       3 UNK        -0.1990 
     29 N          25.2787    0.4896   -2.7469 N.am      3 UNK        -0.4232 
     30 C          26.4872   -0.0087   -3.0515 C.2       2 UNK         0.4993 
     31 O          26.6690   -0.9265   -3.8542 O.2       2 UNK        -0.5286 
     32 CA         27.7182    0.5964   -2.3442 C.3       2 UNK         0.0209 
     33 CB         27.3974    1.7022   -1.3123 C.3       2 UNK        -0.1931 
     34 N          28.5360   -0.4687   -1.7485 N.am      2 UNK        -0.4546 
     35 C          28.1391   -1.3505   -0.8191 C.2       1 UNK         0.5154 
     36 O          27.0636   -1.2832   -0.2155 O.2       1 UNK        -0.5181 
     37 C          27.6626   -0.3369   -7.3637 C.2       5 UNK         0.5014 
     38 O          28.6500   -0.1482   -8.0769 O.2       5 UNK        -0.5248 
     39 N          27.0795    0.6507   -6.6606 N.am      6 UNK        -0.4434 
     40 CA         27.5154    2.0496   -6.7273 C.3       6 UNK         0.0363 
     41 CB         26.8635    2.8941   -5.6226 C.3       6 UNK        -0.1936 
     42 C          27.2508    2.6647   -8.1079 C.2       6 UNK         0.5081 
     43 O          28.1183    3.3552   -8.6411 O.2       6 UNK        -0.5248 
     44 N          26.0876    2.3434   -8.6896 N.am      7 UNK        -0.4718 
     45 CA         25.7225    2.7127  -10.0588 C.3       7 UNK         0.0273 
     46 CB         24.2318    2.4125  -10.2824 C.3       7 UNK        -0.1935 
     47 C          26.5831    2.0031  -11.1201 C.2       7 UNK         0.5018 
     48 O          26.7730    2.5541  -12.2049 O.2       7 UNK        -0.5186 
     49 N          27.0821    0.8030  -10.7915 N.am      8 UNK        -0.4240 
     50 CA         27.9536    0.0074  -11.6510 C.3       8 UNK         0.0235 
     51 CB         27.8771   -1.4764  -11.2514 C.3       8 UNK        -0.2000 
     52 C          29.4064    0.5078  -11.6348 C.2       8 UNK         0.4941 
     53 O          29.9660    0.7305  -12.7097 O.2       8 UNK        -0.5273 
     54 N          30.0053    0.6418  -10.4404 N.am      9 UNK        -0.4262 
     55 CA         31.4496    0.8554  -10.2913 C.3       9 UNK         0.0264 
     56 CB         32.1767   -0.5027  -10.4053 C.3       9 UNK        -0.1955 
     57 C          31.8515    1.6149   -9.0139 C.2       9 UNK         0.5031 
     58 O          32.9999    1.4821   -8.5892 O.2       9 UNK        -0.5390 
     59 N          30.9405    2.3924   -8.4080 N.am      10 UNK        -0.4204 
     60 CA         31.1196    3.2193   -7.1962 C.3       10 UNK         0.0237 
     61 CB         32.2200    4.2828   -7.3857 C.3       10 UNK        -0.1985 
     62 C          31.3254    2.4390   -5.8803 C.2       10 UNK         0.4970 
     63 O          30.8014    2.8658   -4.8514 O.2       10 UNK        -0.4914 
     64 N          32.0514    1.3176   -5.9271 N.am      11 UNK        -0.4285 
     65 CA         32.2962    0.3876   -4.8118 C.3       11 UNK         0.1007 
     66 C          31.0388   -0.3460   -4.2623 C.2       11 UNK         0.5703 
     67 N          29.9341   -0.3941   -4.9919 N.am      11 UNK        -0.7361 
     68 O          31.0473   -0.8394   -3.1366 O.2       11 UNK        -0.4986 
     69 C69        33.4533   -0.5945   -5.1381 C.3       12 UNK        -0.0947 
     70 S70        33.2622   -1.4580   -6.7392 S.3       12 UNK        -0.2240 
     71 C71        33.5753   -3.1915   -6.2955 C.3       12 UNK         0.0194 
     72 H72        28.6051   -3.9775    3.1471 H         1 UNK         0.0906 
     73 H73        30.0997   -3.2519    3.7414 H         1 UNK         0.0906 
     74 H74        28.5781   -2.3640    3.8613 H         1 UNK         0.0906 
     75 H75        28.4332   -3.9028    0.9109 H         1 UNK         0.3140 
     76 H76        30.1008   -2.2253   -0.7295 H         1 UNK         0.1085 
     77 H77        27.6848   -3.8995   -1.6055 H         1 UNK         0.0836 
     78 H78        28.9538   -3.2948   -2.6306 H         1 UNK         0.0836 
     79 H79        31.6873   -3.9945   -1.6788 H         1 UNK         0.0731 
     80 H80        31.9295   -5.7045   -1.9369 H         1 UNK         0.0731 
     81 H81        33.1498   -3.7217   -3.6576 H         1 UNK         0.1312 
     82 H82        31.3182   -4.0882   -7.5085 H         1 UNK         0.1406 
     83 H83        29.3050   -5.6004   -4.0452 H         1 UNK         0.1631 
     84 H84        28.8336   -6.3836   -6.6016 H         1 UNK         0.0717 
     85 H85        29.2386   -5.1737   -7.7931 H         1 UNK         0.0717 
     86 H86        29.0200   -2.6319   -6.8518 H         1 UNK         0.0934 
     87 H87        28.0907   -2.3182   -5.4134 H         1 UNK         0.0934 
     88 H88        27.0668   -2.1602   -8.2926 H         1 UNK         0.0739 
     89 H89        25.5687   -2.0496   -5.8276 H         1 UNK         0.3093 
     90 H90        22.7071   -0.5030   -7.2112 H         1 UNK         0.0818 
     91 H91        21.5078   -2.6045   -6.6502 H         1 UNK         0.0819 
     92 H92        22.4088   -2.8053   -8.1427 H         1 UNK         0.0819 
     93 H93        23.0259   -3.5044   -6.6525 H         1 UNK         0.0819 
     94 H94        23.0493   -1.8716   -4.7487 H         1 UNK         0.3041 
     95 H95        23.2339    0.7235   -2.8891 H         1 UNK         0.0784 
     96 H96        22.6296   -1.6752   -2.7651 H         1 UNK         0.0793 
     97 H97        24.3281   -2.1478   -2.8735 H         1 UNK         0.0793 
     98 H98        23.7337   -1.2816   -1.4661 H         1 UNK         0.0793 
     99 H99        25.2404    1.2630   -2.0986 H         1 UNK         0.3024 
    100 H100       28.3265    1.0488   -3.1288 H         1 UNK         0.1171 
    101 H101       28.3115    2.0838   -0.8572 H         1 UNK         0.0786 
    102 H102       26.7555    1.3463   -0.5058 H         1 UNK         0.0786 
    103 H103       26.9024    2.5518   -1.7843 H         1 UNK         0.0786 
    104 H104       29.4367   -0.6242   -2.1971 H         1 UNK         0.2977 
    105 H105       26.2591    0.4516   -6.0976 H         1 UNK         0.3127 
    106 H106       28.5896    2.0571   -6.5543 H         1 UNK         0.0770 
    107 H107       25.7892    3.0028   -5.7701 H         1 UNK         0.0814 
    108 H108       27.2875    3.8990   -5.6089 H         1 UNK         0.0814 
    109 H109       27.0282    2.4648   -4.6367 H         1 UNK         0.0814 
    110 H110       25.4393    1.7554   -8.1835 H         1 UNK         0.2983 
    111 H111       25.8799    3.7875  -10.1742 H         1 UNK         0.0947 
    112 H112       23.9228    2.7002  -11.2884 H         1 UNK         0.0806 
    113 H113       23.6055    2.9651   -9.5819 H         1 UNK         0.0806 
    114 H114       24.0116    1.3504  -10.1650 H         1 UNK         0.0806 
    115 H115       26.8691    0.4314   -9.8773 H         1 UNK         0.3000 
    116 H116       27.5849    0.0888  -12.6762 H         1 UNK         0.0850 
    117 H117       28.4298   -2.0943  -11.9603 H         1 UNK         0.0810 
    118 H118       26.8475   -1.8349  -11.2432 H         1 UNK         0.0810 
    119 H119       28.3056   -1.6602  -10.2668 H         1 UNK         0.0810 
    120 H120       29.4884    0.4076   -9.5923 H         1 UNK         0.3040 
    121 H121       31.7963    1.4908  -11.1088 H         1 UNK         0.0766 
    122 H122       33.2595   -0.3841  -10.3487 H         1 UNK         0.0812 
    123 H123       31.8794   -1.1798   -9.6035 H         1 UNK         0.0812 
    124 H124       31.9629   -0.9940  -11.3544 H         1 UNK         0.0812 
    125 H125       30.0166    2.4606   -8.8229 H         1 UNK         0.3205 
    126 H126       30.1843    3.7665   -7.0769 H         1 UNK         0.0754 
    127 H127       32.2480    4.9663   -6.5360 H         1 UNK         0.0769 
    128 H128       32.0410    4.8831   -8.2777 H         1 UNK         0.0769 
    129 H129       33.2120    3.8389   -7.4725 H         1 UNK         0.0769 
    130 H130       32.4740    1.0686   -6.8177 H         1 UNK         0.2981 
    131 H131       32.6401    1.0050   -3.9800 H         1 UNK         0.0541 
    132 H132       29.9321   -0.0144   -5.9254 H         1 UNK         0.3459 
    133 H133       29.1165   -0.8489   -4.6207 H         1 UNK         0.3459 
    134 H134       33.5876   -1.3176   -4.3320 H         1 UNK         0.0612 
    135 H135       34.3903   -0.0380   -5.1865 H         1 UNK         0.0612 
    136 H136       33.8353   -3.7397   -7.2021 H         1 UNK         0.0624 
    137 H137       34.4483   -3.2522   -5.6438 H         1 UNK         0.0624 
@<TRIPOS>BOND
     1    1    2 1    
     2    1   72 1    
     3    1   73 1    
     4    1   74 1    
     5    2    3 2    
     6    2    4 am   BACKBONE|DICT|INTERRES
     7    4    5 1    
     8    4   75 1    
     9    5    6 1    
    10    5   35 1    
    11    5   76 1    
    12    6    7 1    
    13    6   77 1    
    14    6   78 1    
    15    7    8 1    
    16    8    9 1    
    17    8   79 1    
    18    8   80 1    
    19    9   10 ar   
    20    9   14 ar   
    21   10   11 ar   
    22   10   81 1    
    23   11   12 ar   
    24   11   71 1    
    25   12   13 ar   
    26   12   82 1    
    27   13   14 ar   
    28   13   15 1    
    29   14   83 1    
    30   15   16 1    
    31   15   84 1    
    32   15   85 1    
    33   16   17 1    
    34   17   18 1    
    35   17   86 1    
    36   17   87 1    
    37   18   19 1    
    38   18   37 1    
    39   18   88 1    
    40   19   20 am   BACKBONE|DICT|INTERRES
    41   19   89 1    
    42   20   21 2    
    43   20   22 1    
    44   22   23 1    
    45   22   24 1    
    46   22   90 1    
    47   23   91 1    
    48   23   92 1    
    49   23   93 1    
    50   24   25 am   BACKBONE|DICT|INTERRES
    51   24   94 1    
    52   25   26 2    
    53   25   27 1    
    54   27   28 1    
    55   27   29 1    
    56   27   95 1    
    57   28   96 1    
    58   28   97 1    
    59   28   98 1    
    60   29   30 am   BACKBONE|DICT|INTERRES
    61   29   99 1    
    62   30   31 2    
    63   30   32 1    
    64   32   33 1    
    65   32   34 1    
    66   32  100 1    
    67   33  101 1    
    68   33  102 1    
    69   33  103 1    
    70   34   35 am   BACKBONE|DICT|INTERRES
    71   34  104 1    
    72   35   36 2    
    73   37   38 2    
    74   37   39 am   BACKBONE|DICT|INTERRES
    75   39   40 1    
    76   39  105 1    
    77   40   41 1    
    78   40   42 1    
    79   40  106 1    
    80   41  107 1    
    81   41  108 1    
    82   41  109 1    
    83   42   43 2    
    84   42   44 am   BACKBONE|DICT|INTERRES
    85   44   45 1    
    86   44  110 1    
    87   45   46 1    
    88   45   47 1    
    89   45  111 1    
    90   46  112 1    
    91   46  113 1    
    92   46  114 1    
    93   47   48 2    
    94   47   49 am   BACKBONE|DICT|INTERRES
    95   49   50 1    
    96   49  115 1    
    97   50   51 1    
    98   50   52 1    
    99   50  116 1    
   100   51  117 1    
   101   51  118 1    
   102   51  119 1    
   103   52   53 2    
   104   52   54 am   BACKBONE|DICT|INTERRES
   105   54   55 1    
   106   54  120 1    
   107   55   56 1    
   108   55   57 1    
   109   55  121 1    
   110   56  122 1    
   111   56  123 1    
   112   56  124 1    
   113   57   58 2    
   114   57   59 am   BACKBONE|DICT|INTERRES
   115   59   60 1    
   116   59  125 1    
   117   60   61 1    
   118   60   62 1    
   119   60  126 1    
   120   61  127 1    
   121   61  128 1    
   122   61  129 1    
   123   62   63 2    
   124   62   64 am   BACKBONE|DICT|INTERRES
   125   64   65 1    
   126   64  130 1    
   127   65   66 1    
   128   65   69 1    
   129   65  131 1    
   130   66   67 am   BACKBONE|DICT|INTERRES
   131   66   68 2    
   132   67  132 1    
   133   67  133 1    
   134   69   70 1    
   135   69  134 1    
   136   69  135 1    
   137   70   71 1    
   138   71  136 1    
   139   71  137 1    
@<TRIPOS>SUBSTRUCTURE
     1 UNK         1 GROUP             0       ****    0 ROOT    
