@<TRIPOS>MOLECULE
3R137
137   139    1
SMALL
USER_CHARGES


@<TRIPOS>ATOM
      1 CA         25.1770   -6.0105   -5.7710 C.3       0 UNK        -0.2020 
      2 C          25.4679   -5.4706   -4.3792 C.2       0 UNK         0.4855 
      3 O          24.5400   -5.0862   -3.6672 O.2       0 UNK        -0.5197 
      4 N          26.7520   -5.4269   -3.9980 N.am      1 UNK        -0.4892 
      5 CA         27.2737   -4.9346   -2.7163 C.3       1 UNK         0.0835 
      6 C6         28.8148   -5.0920   -2.6750 C.3       12 UNK        -0.0855 
      7 S7         29.5018   -4.9127   -0.9978 S.3       12 UNK        -0.2931 
      8 C8         31.1948   -4.3463   -1.3760 C.3       12 UNK         0.0378 
      9 C9         31.2813   -2.8800   -1.7945 C.ar      12 UNK        -0.0802 
     10 C10        32.0467   -2.5123   -2.9076 C.ar      12 UNK        -0.0944 
     11 C11        32.2292   -1.1634   -3.2318 C.ar      12 UNK        -0.0787 
     12 C12        31.6220   -0.1800   -2.4475 C.ar      12 UNK        -0.0862 
     13 C13        30.8292   -0.5312   -1.3513 C.ar      12 UNK        -0.0733 
     14 C14        30.6705   -1.8822   -1.0263 C.ar      12 UNK        -0.0832 
     15 C15        30.1714    0.5430   -0.4914 C.3       12 UNK         0.0240 
     16 S16        29.2405    1.7784   -1.4593 S.3       12 UNK        -0.2522 
     17 C17        28.0346    0.7362   -2.3448 C.3       12 UNK        -0.0967 
     18 CA         28.1162    0.9186   -3.8838 C.3       5 UNK         0.0660 
     19 N          27.6738   -0.2849   -4.5946 N.am      5 UNK        -0.4015 
     20 C          27.6419   -0.4504   -5.9241 C.2       4 UNK         0.4946 
     21 O          28.0590    0.3781   -6.7271 O.2       4 UNK        -0.5353 
     22 CA         26.9674   -1.7245   -6.4556 C.3       4 UNK         0.0277 
     23 CB         27.9331   -2.9211   -6.4464 C.3       4 UNK        -0.1981 
     24 N          25.7520   -2.0389   -5.7019 N.am      4 UNK        -0.4209 
     25 C          24.6259   -1.3112   -5.7585 C.2       3 UNK         0.4942 
     26 O          24.4709   -0.3505   -6.5113 O.2       3 UNK        -0.5208 
     27 CA         23.5026   -1.6826   -4.7768 C.3       3 UNK         0.0250 
     28 CB         22.5825   -2.7581   -5.3745 C.3       3 UNK        -0.1990 
     29 N          24.0234   -2.1282   -3.4817 N.am      3 UNK        -0.4232 
     30 C          24.6127   -1.3072   -2.5988 C.2       2 UNK         0.4993 
     31 O          24.7256   -0.0928   -2.7703 O.2       2 UNK        -0.5286 
     32 CA         25.2333   -1.9511   -1.3444 C.3       2 UNK         0.0209 
     33 CB         24.1859   -2.0751   -0.2271 C.3       2 UNK        -0.1931 
     34 N          25.8397   -3.2636   -1.5988 N.am      2 UNK        -0.4546 
     35 C          26.8412   -3.4758   -2.4639 C.2       1 UNK         0.5154 
     36 O          27.3742   -2.5740   -3.1080 O.2       1 UNK        -0.5181 
     37 C          27.3403    2.1746   -4.3354 C.2       5 UNK         0.5014 
     38 O          27.9562    3.2038   -4.6172 O.2       5 UNK        -0.5248 
     39 N          26.0060    2.0544   -4.4174 N.am      6 UNK        -0.4434 
     40 CA         25.1054    3.1008   -4.9028 C.3       6 UNK         0.0363 
     41 CB         23.6503    2.7022   -4.6084 C.3       6 UNK        -0.1936 
     42 C          25.2930    3.4181   -6.3976 C.2       6 UNK         0.5081 
     43 O          25.2922    4.5932   -6.7661 O.2       6 UNK        -0.5248 
     44 N          25.4400    2.3780   -7.2304 N.am      7 UNK        -0.4718 
     45 CA         25.6356    2.5017   -8.6785 C.3       7 UNK         0.0273 
     46 CB         25.3729    1.1420   -9.3450 C.3       7 UNK        -0.1935 
     47 C          27.0278    3.0265   -9.0734 C.2       7 UNK         0.5018 
     48 O          27.1330    3.7468  -10.0676 O.2       7 UNK        -0.5186 
     49 N          28.0572    2.6449   -8.3038 N.am      8 UNK        -0.4240 
     50 CA         29.4866    2.8515   -8.5514 C.3       8 UNK         0.0235 
     51 CB         29.8527    4.3536   -8.5202 C.3       8 UNK        -0.2000 
     52 C          29.9381    2.0957   -9.8181 C.2       8 UNK         0.4941 
     53 O          29.5175    0.9532  -10.0107 O.2       8 UNK        -0.5273 
     54 N          30.7857    2.7293  -10.6445 N.am      9 UNK        -0.4262 
     55 CA         31.3214    2.2269  -11.9181 C.3       9 UNK         0.0264 
     56 CB         30.2009    2.1332  -12.9771 C.3       9 UNK        -0.1955 
     57 C          32.1107    0.9114  -11.7571 C.2       9 UNK         0.5031 
     58 O          31.8015   -0.0804  -12.4209 O.2       9 UNK        -0.5390 
     59 N          33.1186    0.9485  -10.8714 N.am      10 UNK        -0.4204 
     60 CA         34.0172   -0.1495  -10.4915 C.3       10 UNK         0.0237 
     61 CB         34.8651   -0.6256  -11.6920 C.3       10 UNK        -0.1985 
     62 C          33.2661   -1.2954   -9.7879 C.2       10 UNK         0.4970 
     63 O          33.1657   -2.4010  -10.3231 O.2       10 UNK        -0.4914 
     64 N          32.7615   -0.9972   -8.5845 N.am      11 UNK        -0.4285 
     65 CA         32.0942   -1.9435   -7.6735 C.3       11 UNK         0.1007 
     66 C          32.9870   -3.0917   -7.1148 C.2       11 UNK         0.5703 
     67 N          34.3084   -3.0315   -7.2340 N.am      11 UNK        -0.7361 
     68 O          32.4665   -4.0586   -6.5645 O.2       11 UNK        -0.4986 
     69 C69        31.3292   -1.2057   -6.5379 C.3       12 UNK        -0.0947 
     70 S70        32.2729    0.1249   -5.7150 S.3       12 UNK        -0.2240 
     71 C71        33.1432   -0.7582   -4.3796 C.3       12 UNK         0.0194 
     72 H72        26.0450   -6.5066   -6.2049 H         1 UNK         0.0906 
     73 H73        24.3625   -6.7333   -5.7303 H         1 UNK         0.0906 
     74 H74        24.8810   -5.2001   -6.4362 H         1 UNK         0.0906 
     75 H75        27.4557   -5.7533   -4.6449 H         1 UNK         0.3140 
     76 H76        26.8438   -5.5639   -1.9340 H         1 UNK         0.1085 
     77 H77        29.0983   -6.0853   -3.0270 H         1 UNK         0.0836 
     78 H78        29.2993   -4.3856   -3.3529 H         1 UNK         0.0836 
     79 H79        31.6216   -4.9964   -2.1417 H         1 UNK         0.0731 
     80 H80        31.8097   -4.4820   -0.4853 H         1 UNK         0.0731 
     81 H81        32.5352   -3.2745   -3.4998 H         1 UNK         0.1312 
     82 H82        31.7705    0.8634   -2.6906 H         1 UNK         0.1406 
     83 H83        30.0847   -2.1616   -0.1611 H         1 UNK         0.1631 
     84 H84        30.9448    1.0562    0.0814 H         1 UNK         0.0717 
     85 H85        29.4940    0.0949    0.2374 H         1 UNK         0.0717 
     86 H86        28.2230   -0.3048   -2.0821 H         1 UNK         0.0934 
     87 H87        27.0362    0.9514   -1.9603 H         1 UNK         0.0934 
     88 H88        29.1625    1.0564   -4.1662 H         1 UNK         0.0739 
     89 H89        27.3992   -1.0753   -4.0120 H         1 UNK         0.3093 
     90 H90        26.6781   -1.5394   -7.4924 H         1 UNK         0.0818 
     91 H91        28.3323   -3.1233   -5.4530 H         1 UNK         0.0819 
     92 H92        27.4468   -3.8275   -6.8066 H         1 UNK         0.0819 
     93 H93        28.7833   -2.7319   -7.1022 H         1 UNK         0.0819 
     94 H94        25.8222   -2.7651   -5.0047 H         1 UNK         0.3041 
     95 H95        22.9031   -0.7849   -4.6095 H         1 UNK         0.0784 
     96 H96        22.1564   -2.4221   -6.3209 H         1 UNK         0.0793 
     97 H97        23.1144   -3.6886   -5.5698 H         1 UNK         0.0793 
     98 H98        21.7506   -2.9826   -4.7068 H         1 UNK         0.0793 
     99 H99        24.0128   -3.1271   -3.2969 H         1 UNK         0.3024 
    100 H100       26.0254   -1.2843   -0.9974 H         1 UNK         0.1171 
    101 H101       23.7342   -1.1066   -0.0072 H         1 UNK         0.0786 
    102 H102       24.6335   -2.4389    0.6981 H         1 UNK         0.0786 
    103 H103       23.3795   -2.7563   -0.5019 H         1 UNK         0.0786 
    104 H104       25.4144   -4.0580   -1.1419 H         1 UNK         0.2977 
    105 H105       25.5749    1.1911   -4.1000 H         1 UNK         0.3127 
    106 H106       25.3257    4.0118   -4.3422 H         1 UNK         0.0770 
    107 H107       23.3692    1.7851   -5.1270 H         1 UNK         0.0814 
    108 H108       22.9596    3.4832   -4.9287 H         1 UNK         0.0814 
    109 H109       23.4903    2.5442   -3.5416 H         1 UNK         0.0814 
    110 H110       25.3702    1.4358   -6.8576 H         1 UNK         0.2983 
    111 H111       24.8985    3.2126   -9.0587 H         1 UNK         0.0947 
    112 H112       25.4809    1.2100  -10.4284 H         1 UNK         0.0806 
    113 H113       24.3627    0.7870   -9.1400 H         1 UNK         0.0806 
    114 H114       26.0729    0.3825   -8.9945 H         1 UNK         0.0806 
    115 H115       27.8638    1.9527   -7.5803 H         1 UNK         0.3000 
    116 H116       30.0002    2.3696   -7.7177 H         1 UNK         0.0850 
    117 H117       30.9334    4.4995   -8.5182 H         1 UNK         0.0810 
    118 H118       29.4703    4.8262   -7.6151 H         1 UNK         0.0810 
    119 H119       29.4424    4.8970   -9.3721 H         1 UNK         0.0810 
    120 H120       31.0715    3.6645  -10.3889 H         1 UNK         0.3040 
    121 H121       32.0371    2.9718  -12.2698 H         1 UNK         0.0766 
    122 H122       29.6906    3.0884  -13.1003 H         1 UNK         0.0812 
    123 H123       29.4520    1.3864  -12.7111 H         1 UNK         0.0812 
    124 H124       30.6060    1.8540  -13.9505 H         1 UNK         0.0812 
    125 H125       33.2654    1.8182  -10.3777 H         1 UNK         0.3205 
    126 H126       34.7118    0.2627   -9.7575 H         1 UNK         0.0754 
    127 H127       35.5940   -1.3741  -11.3788 H         1 UNK         0.0769 
    128 H128       35.4200    0.2001  -12.1375 H         1 UNK         0.0769 
    129 H129       34.2551   -1.0789  -12.4739 H         1 UNK         0.0769 
    130 H130       32.8892   -0.0676   -8.2129 H         1 UNK         0.2981 
    131 H131       31.3383   -2.4534   -8.2739 H         1 UNK         0.0541 
    132 H132       34.7492   -2.2448   -7.6808 H         1 UNK         0.3459 
    133 H133       34.8694   -3.7867   -6.8733 H         1 UNK         0.3459 
    134 H134       30.4533   -0.7282   -6.9762 H         1 UNK         0.0612 
    135 H135       30.9366   -1.8979   -5.7904 H         1 UNK         0.0612 
    136 H136       33.9176   -0.0986   -3.9859 H         1 UNK         0.0624 
    137 H137       33.6689   -1.6217   -4.7852 H         1 UNK         0.0624 
@<TRIPOS>BOND
     1    1    2 1    
     2    1   72 1    
     3    1   73 1    
     4    1   74 1    
     5    2    3 2    
     6    2    4 am   BACKBONE|DICT|INTERRES
     7    4    5 1    
     8    4   75 1    
     9    5    6 1    
    10    5   35 1    
    11    5   76 1    
    12    6    7 1    
    13    6   77 1    
    14    6   78 1    
    15    7    8 1    
    16    8    9 1    
    17    8   79 1    
    18    8   80 1    
    19    9   10 ar   
    20    9   14 ar   
    21   10   11 ar   
    22   10   81 1    
    23   11   12 ar   
    24   11   71 1    
    25   12   13 ar   
    26   12   82 1    
    27   13   14 ar   
    28   13   15 1    
    29   14   83 1    
    30   15   16 1    
    31   15   84 1    
    32   15   85 1    
    33   16   17 1    
    34   17   18 1    
    35   17   86 1    
    36   17   87 1    
    37   18   19 1    
    38   18   37 1    
    39   18   88 1    
    40   19   20 am   BACKBONE|DICT|INTERRES
    41   19   89 1    
    42   20   21 2    
    43   20   22 1    
    44   22   23 1    
    45   22   24 1    
    46   22   90 1    
    47   23   91 1    
    48   23   92 1    
    49   23   93 1    
    50   24   25 am   BACKBONE|DICT|INTERRES
    51   24   94 1    
    52   25   26 2    
    53   25   27 1    
    54   27   28 1    
    55   27   29 1    
    56   27   95 1    
    57   28   96 1    
    58   28   97 1    
    59   28   98 1    
    60   29   30 am   BACKBONE|DICT|INTERRES
    61   29   99 1    
    62   30   31 2    
    63   30   32 1    
    64   32   33 1    
    65   32   34 1    
    66   32  100 1    
    67   33  101 1    
    68   33  102 1    
    69   33  103 1    
    70   34   35 am   BACKBONE|DICT|INTERRES
    71   34  104 1    
    72   35   36 2    
    73   37   38 2    
    74   37   39 am   BACKBONE|DICT|INTERRES
    75   39   40 1    
    76   39  105 1    
    77   40   41 1    
    78   40   42 1    
    79   40  106 1    
    80   41  107 1    
    81   41  108 1    
    82   41  109 1    
    83   42   43 2    
    84   42   44 am   BACKBONE|DICT|INTERRES
    85   44   45 1    
    86   44  110 1    
    87   45   46 1    
    88   45   47 1    
    89   45  111 1    
    90   46  112 1    
    91   46  113 1    
    92   46  114 1    
    93   47   48 2    
    94   47   49 am   BACKBONE|DICT|INTERRES
    95   49   50 1    
    96   49  115 1    
    97   50   51 1    
    98   50   52 1    
    99   50  116 1    
   100   51  117 1    
   101   51  118 1    
   102   51  119 1    
   103   52   53 2    
   104   52   54 am   BACKBONE|DICT|INTERRES
   105   54   55 1    
   106   54  120 1    
   107   55   56 1    
   108   55   57 1    
   109   55  121 1    
   110   56  122 1    
   111   56  123 1    
   112   56  124 1    
   113   57   58 2    
   114   57   59 am   BACKBONE|DICT|INTERRES
   115   59   60 1    
   116   59  125 1    
   117   60   61 1    
   118   60   62 1    
   119   60  126 1    
   120   61  127 1    
   121   61  128 1    
   122   61  129 1    
   123   62   63 2    
   124   62   64 am   BACKBONE|DICT|INTERRES
   125   64   65 1    
   126   64  130 1    
   127   65   66 1    
   128   65   69 1    
   129   65  131 1    
   130   66   67 am   BACKBONE|DICT|INTERRES
   131   66   68 2    
   132   67  132 1    
   133   67  133 1    
   134   69   70 1    
   135   69  134 1    
   136   69  135 1    
   137   70   71 1    
   138   71  136 1    
   139   71  137 1    
@<TRIPOS>SUBSTRUCTURE
     1 UNK         1 GROUP             0       ****    0 ROOT    
