@<TRIPOS>MOLECULE
3R137
137   139    1
SMALL
USER_CHARGES


@<TRIPOS>ATOM
      1 CA         27.4504   -0.3995    4.1951 C.3       0 UNK        -0.2020 
      2 C          27.8704   -0.1101    2.7618 C.2       0 UNK         0.4855 
      3 O          28.2182    1.0273    2.4441 O.2       0 UNK        -0.5197 
      4 N          27.8410   -1.1304    1.8933 N.am      1 UNK        -0.4892 
      5 CA         28.1954   -1.0280    0.4705 C.3       1 UNK         0.0835 
      6 C6         28.5029   -2.4282   -0.1236 C.3       12 UNK        -0.0855 
      7 S7         29.5358   -2.3291   -1.6201 S.3       12 UNK        -0.2931 
      8 C8         29.6995   -4.0813   -2.0896 C.3       12 UNK         0.0378 
      9 C9         29.9588   -4.2247   -3.5843 C.ar      12 UNK        -0.0802 
     10 C10        31.0859   -3.6369   -4.1669 C.ar      12 UNK        -0.0944 
     11 C11        31.2920   -3.6980   -5.5490 C.ar      12 UNK        -0.0787 
     12 C12        30.3788   -4.3962   -6.3485 C.ar      12 UNK        -0.0862 
     13 C13        29.2715   -5.0294   -5.7719 C.ar      12 UNK        -0.0733 
     14 C14        29.0616   -4.9288   -4.3927 C.ar      12 UNK        -0.0832 
     15 C15        28.3236   -5.8698   -6.6168 C.3       12 UNK         0.0240 
     16 S16        26.6853   -5.0943   -6.8054 S.3       12 UNK        -0.2522 
     17 C17        26.7302   -4.4543   -8.5180 C.3       12 UNK        -0.0967 
     18 CA         26.4734   -2.9326   -8.6369 C.3       5 UNK         0.0660 
     19 N          25.2527   -2.5069   -7.9489 N.am      5 UNK        -0.4015 
     20 C          24.6774   -1.3049   -8.0915 C.2       4 UNK         0.4946 
     21 O          25.0784   -0.4422   -8.8721 O.2       4 UNK        -0.5353 
     22 CA         23.4841   -0.9954   -7.1728 C.3       4 UNK         0.0277 
     23 CB         22.1727   -1.4890   -7.8042 C.3       4 UNK        -0.1981 
     24 N          23.6320   -1.5623   -5.8272 N.am      4 UNK        -0.4209 
     25 C          24.5866   -1.2026   -4.9585 C.2       3 UNK         0.4942 
     26 O          25.4526   -0.3591   -5.2033 O.2       3 UNK        -0.5208 
     27 CA         24.6109   -1.9510   -3.6215 C.3       3 UNK         0.0250 
     28 CB         25.6525   -3.0821   -3.6579 C.3       3 UNK        -0.1990 
     29 N          24.9627   -1.0259   -2.5480 N.am      3 UNK        -0.4232 
     30 C          24.1244   -0.5782   -1.6066 C.2       2 UNK         0.4993 
     31 O          22.9386   -0.9080   -1.5356 O.2       2 UNK        -0.5286 
     32 CA         24.7262    0.3656   -0.5462 C.3       2 UNK         0.0209 
     33 CB         23.7027    0.7939    0.5230 C.3       2 UNK        -0.1931 
     34 N          25.8748   -0.2529    0.1226 N.am      2 UNK        -0.4546 
     35 C          27.1266   -0.2726   -0.3567 C.2       1 UNK         0.5154 
     36 O          27.4398    0.2720   -1.4166 O.2       1 UNK        -0.5181 
     37 C          27.7040   -2.1052   -8.2213 C.2       5 UNK         0.5014 
     38 O          28.5305   -1.7998   -9.0798 O.2       5 UNK        -0.5248 
     39 N          27.7861   -1.7187   -6.9397 N.am      6 UNK        -0.4434 
     40 CA         28.8482   -0.8611   -6.4157 C.3       6 UNK         0.0363 
     41 CB         28.8249   -0.8586   -4.8817 C.3       6 UNK        -0.1936 
     42 C          28.7472    0.5673   -6.9597 C.2       6 UNK         0.5081 
     43 O          29.7630    1.1359   -7.3602 O.2       6 UNK        -0.5248 
     44 N          27.5175    1.0997   -7.0076 N.am      7 UNK        -0.4718 
     45 CA         27.1985    2.3973   -7.6053 C.3       7 UNK         0.0273 
     46 CB         25.7329    2.7545   -7.3114 C.3       7 UNK        -0.1935 
     47 C          27.4865    2.4413   -9.1162 C.2       7 UNK         0.5018 
     48 O          28.0276    3.4385   -9.5943 O.2       7 UNK        -0.5186 
     49 N          27.1492    1.3567   -9.8301 N.am      8 UNK        -0.4240 
     50 CA         27.4381    1.1762  -11.2545 C.3       8 UNK         0.0235 
     51 CB         26.6704   -0.0422  -11.7919 C.3       8 UNK        -0.2000 
     52 C          28.9423    1.0456  -11.5480 C.2       8 UNK         0.4941 
     53 O          29.4257    1.6747  -12.4902 O.2       8 UNK        -0.5273 
     54 N          29.6546    0.2415  -10.7443 N.am      9 UNK        -0.4262 
     55 CA         31.1018    0.0357  -10.8530 C.3       9 UNK         0.0264 
     56 CB         31.5150   -1.1787  -10.0033 C.3       9 UNK        -0.1955 
     57 C          31.9278    1.2653  -10.4420 C.2       9 UNK         0.5031 
     58 O          33.0153    1.4599  -10.9871 O.2       9 UNK        -0.5390 
     59 N          31.4159    2.0404   -9.4730 N.am      10 UNK        -0.4204 
     60 CA         32.0761    3.1534   -8.7799 C.3       10 UNK         0.0237 
     61 CB         32.3546    4.3299   -9.7396 C.3       10 UNK        -0.1985 
     62 C          33.3226    2.6825   -8.0038 C.2       10 UNK         0.4970 
     63 O          34.3421    3.3747   -7.9850 O.2       10 UNK        -0.4914 
     64 N          33.2154    1.4947   -7.3944 N.am      11 UNK        -0.4285 
     65 CA         34.2896    0.8133   -6.6572 C.3       11 UNK         0.1007 
     66 C          34.5917    1.3899   -5.2422 C.2       11 UNK         0.5703 
     67 N          33.7873    2.3014   -4.7073 N.am      11 UNK        -0.7361 
     68 O          35.5868    1.0147   -4.6264 O.2       11 UNK        -0.4986 
     69 C69        34.0701   -0.7241   -6.6415 C.3       12 UNK        -0.0947 
     70 S70        32.4901   -1.2206   -5.8804 S.3       12 UNK        -0.2240 
     71 C71        32.5091   -3.0183   -6.1652 C.3       12 UNK         0.0194 
     72 H72        27.1740   -1.4440    4.3377 H         1 UNK         0.0906 
     73 H73        28.2672   -0.1693    4.8788 H         1 UNK         0.0906 
     74 H74        26.5946    0.2178    4.4670 H         1 UNK         0.0906 
     75 H75        27.5555   -2.0456    2.2139 H         1 UNK         0.3140 
     76 H76        29.1083   -0.4299    0.4138 H         1 UNK         0.1085 
     77 H77        29.0514   -3.0322    0.6015 H         1 UNK         0.0836 
     78 H78        27.5843   -2.9758   -0.3449 H         1 UNK         0.0836 
     79 H79        28.7927   -4.6184   -1.8072 H         1 UNK         0.0731 
     80 H80        30.5189   -4.5328   -1.5290 H         1 UNK         0.0731 
     81 H81        31.7851   -3.0930   -3.5463 H         1 UNK         0.1312 
     82 H82        30.5386   -4.4610   -7.4161 H         1 UNK         0.1406 
     83 H83        28.1950   -5.4031   -3.9521 H         1 UNK         0.1631 
     84 H84        28.1869   -6.8355   -6.1278 H         1 UNK         0.0717 
     85 H85        28.7621   -6.0955   -7.5894 H         1 UNK         0.0717 
     86 H86        27.6707   -4.7186   -9.0049 H         1 UNK         0.0934 
     87 H87        25.9619   -4.9883   -9.0794 H         1 UNK         0.0934 
     88 H88        26.3166   -2.7242   -9.6975 H         1 UNK         0.0739 
     89 H89        24.8641   -3.1618   -7.2863 H         1 UNK         0.3093 
     90 H90        23.4253    0.0904   -7.0704 H         1 UNK         0.0818 
     91 H91        21.3092   -1.1941   -7.2076 H         1 UNK         0.0819 
     92 H92        22.0361   -1.0632   -8.7994 H         1 UNK         0.0819 
     93 H93        22.1546   -2.5745   -7.9092 H         1 UNK         0.0819 
     94 H94        22.9584   -2.2635   -5.5523 H         1 UNK         0.3041 
     95 H95        23.6284   -2.3920   -3.4401 H         1 UNK         0.0784 
     96 H96        26.6542   -2.7095   -3.8734 H         1 UNK         0.0793 
     97 H97        25.6956   -3.6097   -2.7049 H         1 UNK         0.0793 
     98 H98        25.4029   -3.8189   -4.4212 H         1 UNK         0.0793 
     99 H99        25.9070   -0.6549   -2.5636 H         1 UNK         0.3024 
    100 H100       25.0552    1.2667   -1.0697 H         1 UNK         0.1171 
    101 H101       22.8479    1.2958    0.0674 H         1 UNK         0.0786 
    102 H102       24.1429    1.4919    1.2354 H         1 UNK         0.0786 
    103 H103       23.3200   -0.0604    1.0829 H         1 UNK         0.0786 
    104 H104       25.6907   -0.7381    0.9887 H         1 UNK         0.2977 
    105 H105       27.0498   -1.9775   -6.3004 H         1 UNK         0.3127 
    106 H106       29.7966   -1.2842   -6.7469 H         1 UNK         0.0770 
    107 H107       27.9483   -0.3534   -4.4770 H         1 UNK         0.0814 
    108 H108       29.7037   -0.3511   -4.4823 H         1 UNK         0.0814 
    109 H109       28.8346   -1.8728   -4.4906 H         1 UNK         0.0814 
    110 H110       26.7470    0.5674   -6.6166 H         1 UNK         0.2983 
    111 H111       27.8350    3.1452   -7.1274 H         1 UNK         0.0947 
    112 H112       25.4855    3.7402   -7.7075 H         1 UNK         0.0806 
    113 H113       25.5376    2.7764   -6.2390 H         1 UNK         0.0806 
    114 H114       25.0433    2.0400   -7.7613 H         1 UNK         0.0806 
    115 H115       26.6303    0.6138   -9.3685 H         1 UNK         0.3000 
    116 H116       27.0747    2.0620  -11.7799 H         1 UNK         0.0850 
    117 H117       26.8433   -0.1720  -12.8610 H         1 UNK         0.0810 
    118 H118       25.5957    0.0714  -11.6480 H         1 UNK         0.0810 
    119 H119       26.9778   -0.9637  -11.2972 H         1 UNK         0.0810 
    120 H120       29.1712   -0.3064  -10.0350 H         1 UNK         0.3040 
    121 H121       31.3340   -0.1842  -11.8972 H         1 UNK         0.0766 
    122 H122       32.5890   -1.3577  -10.0691 H         1 UNK         0.0812 
    123 H123       31.0143   -2.0865  -10.3399 H         1 UNK         0.0812 
    124 H124       31.2721   -1.0357   -8.9493 H         1 UNK         0.0812 
    125 H125       30.5500    1.7322   -9.0370 H         1 UNK         0.3205 
    126 H126       31.3657    3.5034   -8.0294 H         1 UNK         0.0754 
    127 H127       32.7152    5.2019   -9.1927 H         1 UNK         0.0769 
    128 H128       31.4496    4.6302  -10.2681 H         1 UNK         0.0769 
    129 H129       33.1107    4.0790  -10.4841 H         1 UNK         0.0769 
    130 H130       32.3267    1.0137   -7.4181 H         1 UNK         0.2981 
    131 H131       35.2075    0.9812   -7.2236 H         1 UNK         0.0541 
    132 H132       32.9678    2.6112   -5.2032 H         1 UNK         0.3459 
    133 H133       33.9980    2.6716   -3.7942 H         1 UNK         0.3459 
    134 H134       34.8873   -1.2286   -6.1227 H         1 UNK         0.0612 
    135 H135       34.0867   -1.1029   -7.6646 H         1 UNK         0.0612 
    136 H136       32.5561   -3.2056   -7.2391 H         1 UNK         0.0624 
    137 H137       33.4148   -3.4431   -5.7303 H         1 UNK         0.0624 
@<TRIPOS>BOND
     1    1    2 1    
     2    1   72 1    
     3    1   73 1    
     4    1   74 1    
     5    2    3 2    
     6    2    4 am   BACKBONE|DICT|INTERRES
     7    4    5 1    
     8    4   75 1    
     9    5    6 1    
    10    5   35 1    
    11    5   76 1    
    12    6    7 1    
    13    6   77 1    
    14    6   78 1    
    15    7    8 1    
    16    8    9 1    
    17    8   79 1    
    18    8   80 1    
    19    9   10 ar   
    20    9   14 ar   
    21   10   11 ar   
    22   10   81 1    
    23   11   12 ar   
    24   11   71 1    
    25   12   13 ar   
    26   12   82 1    
    27   13   14 ar   
    28   13   15 1    
    29   14   83 1    
    30   15   16 1    
    31   15   84 1    
    32   15   85 1    
    33   16   17 1    
    34   17   18 1    
    35   17   86 1    
    36   17   87 1    
    37   18   19 1    
    38   18   37 1    
    39   18   88 1    
    40   19   20 am   BACKBONE|DICT|INTERRES
    41   19   89 1    
    42   20   21 2    
    43   20   22 1    
    44   22   23 1    
    45   22   24 1    
    46   22   90 1    
    47   23   91 1    
    48   23   92 1    
    49   23   93 1    
    50   24   25 am   BACKBONE|DICT|INTERRES
    51   24   94 1    
    52   25   26 2    
    53   25   27 1    
    54   27   28 1    
    55   27   29 1    
    56   27   95 1    
    57   28   96 1    
    58   28   97 1    
    59   28   98 1    
    60   29   30 am   BACKBONE|DICT|INTERRES
    61   29   99 1    
    62   30   31 2    
    63   30   32 1    
    64   32   33 1    
    65   32   34 1    
    66   32  100 1    
    67   33  101 1    
    68   33  102 1    
    69   33  103 1    
    70   34   35 am   BACKBONE|DICT|INTERRES
    71   34  104 1    
    72   35   36 2    
    73   37   38 2    
    74   37   39 am   BACKBONE|DICT|INTERRES
    75   39   40 1    
    76   39  105 1    
    77   40   41 1    
    78   40   42 1    
    79   40  106 1    
    80   41  107 1    
    81   41  108 1    
    82   41  109 1    
    83   42   43 2    
    84   42   44 am   BACKBONE|DICT|INTERRES
    85   44   45 1    
    86   44  110 1    
    87   45   46 1    
    88   45   47 1    
    89   45  111 1    
    90   46  112 1    
    91   46  113 1    
    92   46  114 1    
    93   47   48 2    
    94   47   49 am   BACKBONE|DICT|INTERRES
    95   49   50 1    
    96   49  115 1    
    97   50   51 1    
    98   50   52 1    
    99   50  116 1    
   100   51  117 1    
   101   51  118 1    
   102   51  119 1    
   103   52   53 2    
   104   52   54 am   BACKBONE|DICT|INTERRES
   105   54   55 1    
   106   54  120 1    
   107   55   56 1    
   108   55   57 1    
   109   55  121 1    
   110   56  122 1    
   111   56  123 1    
   112   56  124 1    
   113   57   58 2    
   114   57   59 am   BACKBONE|DICT|INTERRES
   115   59   60 1    
   116   59  125 1    
   117   60   61 1    
   118   60   62 1    
   119   60  126 1    
   120   61  127 1    
   121   61  128 1    
   122   61  129 1    
   123   62   63 2    
   124   62   64 am   BACKBONE|DICT|INTERRES
   125   64   65 1    
   126   64  130 1    
   127   65   66 1    
   128   65   69 1    
   129   65  131 1    
   130   66   67 am   BACKBONE|DICT|INTERRES
   131   66   68 2    
   132   67  132 1    
   133   67  133 1    
   134   69   70 1    
   135   69  134 1    
   136   69  135 1    
   137   70   71 1    
   138   71  136 1    
   139   71  137 1    
@<TRIPOS>SUBSTRUCTURE
     1 UNK         1 GROUP             0       ****    0 ROOT    
