@<TRIPOS>MOLECULE
3R137
137   139    1
SMALL
USER_CHARGES


@<TRIPOS>ATOM
      1 CA         22.5182   -3.9991   -3.9163 C.3       0 UNK        -0.2020 
      2 C          23.4111   -4.4986   -2.7916 C.2       0 UNK         0.4855 
      3 O          22.9297   -4.7321   -1.6841 O.2       0 UNK        -0.5197 
      4 N          24.7117   -4.6576   -3.0605 N.am      1 UNK        -0.4892 
      5 CA         25.7194   -5.1122   -2.0959 C.3       1 UNK         0.0835 
      6 C6         27.0300   -5.5627   -2.7930 C.3       12 UNK        -0.0855 
      7 S7         27.7054   -4.3356   -3.9692 S.3       12 UNK        -0.2931 
      8 C8         29.1668   -3.7399   -3.0646 C.3       12 UNK         0.0378 
      9 C9         29.7459   -2.5051   -3.7352 C.ar      12 UNK        -0.0802 
     10 C10        30.4974   -2.6330   -4.9065 C.ar      12 UNK        -0.0944 
     11 C11        31.0127   -1.5035   -5.5483 C.ar      12 UNK        -0.0787 
     12 C12        30.7731   -0.2370   -5.0070 C.ar      12 UNK        -0.0862 
     13 C13        30.0242   -0.0956   -3.8334 C.ar      12 UNK        -0.0733 
     14 C14        29.5205   -1.2344   -3.1972 C.ar      12 UNK        -0.0832 
     15 C15        29.7503    1.2907   -3.2621 C.3       12 UNK         0.0240 
     16 S16        27.9823    1.7404   -3.3181 S.3       12 UNK        -0.2522 
     17 C17        27.5763    1.4694   -5.0764 C.3       12 UNK        -0.0967 
     18 CA         26.6539    0.2374   -5.2456 C.3       5 UNK         0.0660 
     19 N          25.3025    0.5123   -4.7401 N.am      5 UNK        -0.4015 
     20 C          24.5482   -0.3813   -4.0948 C.2       4 UNK         0.4946 
     21 O          24.9024   -1.5403   -3.8518 O.2       4 UNK        -0.5353 
     22 CA         23.1675    0.0941   -3.6225 C.3       4 UNK         0.0277 
     23 CB         22.0865   -0.1702   -4.6834 C.3       4 UNK        -0.1981 
     24 N          22.8865   -0.6667   -2.4167 N.am      4 UNK        -0.4209 
     25 C          22.3025   -0.2240   -1.2978 C.2       3 UNK         0.4942 
     26 O          21.6520    0.8182   -1.2188 O.2       3 UNK        -0.5208 
     27 CA         22.5634   -1.0704   -0.0350 C.3       3 UNK         0.0250 
     28 CB         21.4825   -2.1487    0.1365 C.3       3 UNK        -0.1990 
     29 N          23.8953   -1.6912   -0.0962 N.am      3 UNK        -0.4232 
     30 C          25.0353   -0.9887    0.0134 C.2       2 UNK         0.4993 
     31 O          25.0827    0.1505    0.4787 O.2       2 UNK        -0.5286 
     32 CA         26.3186   -1.5882   -0.5846 C.3       2 UNK         0.0209 
     33 CB         27.4415   -1.7489    0.4618 C.3       2 UNK        -0.1931 
     34 N          26.0968   -2.7969   -1.3919 N.am      2 UNK        -0.4546 
     35 C          25.9774   -4.0705   -0.9879 C.2       1 UNK         0.5154 
     36 O          26.0289   -4.4361    0.1863 O.2       1 UNK        -0.5181 
     37 C          26.6457   -0.2533   -6.7077 C.2       5 UNK         0.5014 
     38 O          27.6650   -0.7766   -7.1583 O.2       5 UNK        -0.5248 
     39 N          25.5204   -0.0791   -7.4232 N.am      6 UNK        -0.4434 
     40 CA         25.3174   -0.4102   -8.8395 C.3       6 UNK         0.0363 
     41 CB         25.2801   -1.9431   -9.0408 C.3       6 UNK        -0.1936 
     42 C          26.3380    0.3274   -9.7295 C.2       6 UNK         0.5081 
     43 O          26.3530    1.5604   -9.7235 O.2       6 UNK        -0.5248 
     44 N          27.1948   -0.4132  -10.4446 N.am      7 UNK        -0.4718 
     45 CA         28.3205    0.1078  -11.2243 C.3       7 UNK         0.0273 
     46 CB         28.7374   -0.9482  -12.2653 C.3       7 UNK        -0.1935 
     47 C          29.4894    0.5253  -10.3089 C.2       7 UNK         0.5018 
     48 O          30.5677   -0.0683  -10.3718 O.2       7 UNK        -0.5186 
     49 N          29.2515    1.5450   -9.4709 N.am      8 UNK        -0.4240 
     50 CA         30.1624    2.0575   -8.4388 C.3       8 UNK         0.0235 
     51 CB         29.5138    3.2674   -7.7486 C.3       8 UNK        -0.2000 
     52 C          31.5627    2.4334   -8.9522 C.2       8 UNK         0.4941 
     53 O          32.5446    2.2429   -8.2334 O.2       8 UNK        -0.5273 
     54 N          31.6334    2.9042  -10.2056 N.am      9 UNK        -0.4262 
     55 CA         32.8607    3.2354  -10.9341 C.3       9 UNK         0.0264 
     56 CB         32.4845    3.8380  -12.2977 C.3       9 UNK        -0.1955 
     57 C          33.8386    2.0580  -11.1192 C.2       9 UNK         0.5031 
     58 O          35.0221    2.3069  -11.3534 O.2       9 UNK        -0.5390 
     59 N          33.3568    0.8106  -10.9969 N.am      10 UNK        -0.4204 
     60 CA         34.1955   -0.3906  -10.9858 C.3       10 UNK         0.0237 
     61 CB         33.3147   -1.6335  -11.1938 C.3       10 UNK        -0.1985 
     62 C          35.0242   -0.5352   -9.6953 C.2       10 UNK         0.4970 
     63 O          36.0618   -1.1983   -9.7326 O.2       10 UNK        -0.4914 
     64 N          34.5599    0.0693   -8.5934 N.am      11 UNK        -0.4285 
     65 CA         35.2178    0.0473   -7.2788 C.3       11 UNK         0.1007 
     66 C          35.8438    1.4202   -6.9212 C.2       11 UNK         0.5703 
     67 N          35.2235    2.5372   -7.2829 N.am      11 UNK        -0.7361 
     68 O          36.9123    1.4723   -6.3168 O.2       11 UNK        -0.4986 
     69 C69        34.2525   -0.4166   -6.1582 C.3       12 UNK        -0.0947 
     70 S70        33.5510   -2.0699   -6.4838 S.3       12 UNK        -0.2240 
     71 C71        31.8122   -1.6630   -6.8332 C.3       12 UNK         0.0194 
     72 H72        21.9141   -4.8177   -4.3062 H         1 UNK         0.0906 
     73 H73        21.8445   -3.2261   -3.5482 H         1 UNK         0.0906 
     74 H74        23.0997   -3.5800   -4.7375 H         1 UNK         0.0906 
     75 H75        25.0721   -4.4057   -3.9716 H         1 UNK         0.3140 
     76 H76        25.3072   -5.9909   -1.5938 H         1 UNK         0.1085 
     77 H77        26.8342   -6.4752   -3.3582 H         1 UNK         0.0836 
     78 H78        27.7883   -5.8395   -2.0575 H         1 UNK         0.0836 
     79 H79        29.9186   -4.5296   -3.0270 H         1 UNK         0.0731 
     80 H80        28.8962   -3.5193   -2.0313 H         1 UNK         0.0731 
     81 H81        30.6711   -3.6146   -5.3263 H         1 UNK         0.1312 
     82 H82        31.1632    0.6401   -5.5041 H         1 UNK         0.1406 
     83 H83        28.9357   -1.1254   -2.2948 H         1 UNK         0.1631 
     84 H84        30.3220    2.0502   -3.7978 H         1 UNK         0.0717 
     85 H85        30.0912    1.3258   -2.2265 H         1 UNK         0.0717 
     86 H86        27.1025    2.3692   -5.4721 H         1 UNK         0.0934 
     87 H87        28.5032    1.3494   -5.6390 H         1 UNK         0.0934 
     88 H88        27.0904   -0.5837   -4.6719 H         1 UNK         0.0739 
     89 H89        24.9569    1.4531   -4.8649 H         1 UNK         0.3093 
     90 H90        23.2103    1.1597   -3.3858 H         1 UNK         0.0818 
     91 H91        22.2581    0.4338   -5.5748 H         1 UNK         0.0819 
     92 H92        22.0690   -1.2143   -4.9961 H         1 UNK         0.0819 
     93 H93        21.0948    0.0825   -4.3076 H         1 UNK         0.0819 
     94 H94        23.4328   -1.5169   -2.3682 H         1 UNK         0.3041 
     95 H95        22.5264   -0.4077    0.8324 H         1 UNK         0.0784 
     96 H96        20.5019   -1.6923    0.2782 H         1 UNK         0.0793 
     97 H97        21.4119   -2.7983   -0.7358 H         1 UNK         0.0793 
     98 H98        21.6780   -2.7744    1.0074 H         1 UNK         0.0793 
     99 H99        23.9450   -2.6429   -0.4338 H         1 UNK         0.3024 
    100 H100       26.6637   -0.8415   -1.3023 H         1 UNK         0.1171 
    101 H101       27.1391   -2.3859    1.2930 H         1 UNK         0.0786 
    102 H102       28.3441   -2.1720    0.0220 H         1 UNK         0.0786 
    103 H103       27.7125   -0.7815    0.8867 H         1 UNK         0.0786 
    104 H104       25.9720   -2.6228   -2.3859 H         1 UNK         0.2977 
    105 H105       24.7448    0.3833   -6.9727 H         1 UNK         0.3127 
    106 H106       24.3373   -0.0181   -9.1154 H         1 UNK         0.0770 
    107 H107       25.0642   -2.2002  -10.0787 H         1 UNK         0.0814 
    108 H108       24.4959   -2.3950   -8.4333 H         1 UNK         0.0814 
    109 H109       26.2206   -2.4221   -8.7660 H         1 UNK         0.0814 
    110 H110       27.1466   -1.4169  -10.3448 H         1 UNK         0.2983 
    111 H111       27.9947    0.9991  -11.7655 H         1 UNK         0.0947 
    112 H112       29.5611   -0.5847  -12.8814 H         1 UNK         0.0806 
    113 H113       27.9142   -1.1901  -12.9376 H         1 UNK         0.0806 
    114 H114       29.0691   -1.8737  -11.7927 H         1 UNK         0.0806 
    115 H115       28.3084    1.9217   -9.4763 H         1 UNK         0.3000 
    116 H116       30.2829    1.2606   -7.7032 H         1 UNK         0.0850 
    117 H117       28.5132    3.0349   -7.3870 H         1 UNK         0.0810 
    118 H118       29.4282    4.1190   -8.4250 H         1 UNK         0.0810 
    119 H119       30.1053    3.5897   -6.8903 H         1 UNK         0.0810 
    120 H120       30.7669    3.0139  -10.7119 H         1 UNK         0.3040 
    121 H121       33.3859    3.9975  -10.3547 H         1 UNK         0.0766 
    122 H122       33.3758    4.1279  -12.8562 H         1 UNK         0.0812 
    123 H123       31.8733    4.7333  -12.1826 H         1 UNK         0.0812 
    124 H124       31.9312    3.1280  -12.9138 H         1 UNK         0.0812 
    125 H125       32.3673    0.6719  -10.8070 H         1 UNK         0.3205 
    126 H126       34.8941   -0.3257  -11.8228 H         1 UNK         0.0754 
    127 H127       33.9254   -2.5330  -11.2818 H         1 UNK         0.0769 
    128 H128       32.7197   -1.5538  -12.1038 H         1 UNK         0.0769 
    129 H129       32.6306   -1.7869  -10.3579 H         1 UNK         0.0769 
    130 H130       33.7288    0.6451   -8.6544 H         1 UNK         0.2981 
    131 H131       36.0434   -0.6667   -7.2985 H         1 UNK         0.0541 
    132 H132       34.3010    2.5004   -7.7080 H         1 UNK         0.3459 
    133 H133       35.6375    3.4266   -7.0553 H         1 UNK         0.3459 
    134 H134       34.7767   -0.4659   -5.2021 H         1 UNK         0.0612 
    135 H135       33.4486    0.3083   -6.0254 H         1 UNK         0.0612 
    136 H136       31.3790   -2.4639   -7.4341 H         1 UNK         0.0624 
    137 H137       31.7548   -0.7627   -7.4473 H         1 UNK         0.0624 
@<TRIPOS>BOND
     1    1    2 1    
     2    1   72 1    
     3    1   73 1    
     4    1   74 1    
     5    2    3 2    
     6    2    4 am   BACKBONE|DICT|INTERRES
     7    4    5 1    
     8    4   75 1    
     9    5    6 1    
    10    5   35 1    
    11    5   76 1    
    12    6    7 1    
    13    6   77 1    
    14    6   78 1    
    15    7    8 1    
    16    8    9 1    
    17    8   79 1    
    18    8   80 1    
    19    9   10 ar   
    20    9   14 ar   
    21   10   11 ar   
    22   10   81 1    
    23   11   12 ar   
    24   11   71 1    
    25   12   13 ar   
    26   12   82 1    
    27   13   14 ar   
    28   13   15 1    
    29   14   83 1    
    30   15   16 1    
    31   15   84 1    
    32   15   85 1    
    33   16   17 1    
    34   17   18 1    
    35   17   86 1    
    36   17   87 1    
    37   18   19 1    
    38   18   37 1    
    39   18   88 1    
    40   19   20 am   BACKBONE|DICT|INTERRES
    41   19   89 1    
    42   20   21 2    
    43   20   22 1    
    44   22   23 1    
    45   22   24 1    
    46   22   90 1    
    47   23   91 1    
    48   23   92 1    
    49   23   93 1    
    50   24   25 am   BACKBONE|DICT|INTERRES
    51   24   94 1    
    52   25   26 2    
    53   25   27 1    
    54   27   28 1    
    55   27   29 1    
    56   27   95 1    
    57   28   96 1    
    58   28   97 1    
    59   28   98 1    
    60   29   30 am   BACKBONE|DICT|INTERRES
    61   29   99 1    
    62   30   31 2    
    63   30   32 1    
    64   32   33 1    
    65   32   34 1    
    66   32  100 1    
    67   33  101 1    
    68   33  102 1    
    69   33  103 1    
    70   34   35 am   BACKBONE|DICT|INTERRES
    71   34  104 1    
    72   35   36 2    
    73   37   38 2    
    74   37   39 am   BACKBONE|DICT|INTERRES
    75   39   40 1    
    76   39  105 1    
    77   40   41 1    
    78   40   42 1    
    79   40  106 1    
    80   41  107 1    
    81   41  108 1    
    82   41  109 1    
    83   42   43 2    
    84   42   44 am   BACKBONE|DICT|INTERRES
    85   44   45 1    
    86   44  110 1    
    87   45   46 1    
    88   45   47 1    
    89   45  111 1    
    90   46  112 1    
    91   46  113 1    
    92   46  114 1    
    93   47   48 2    
    94   47   49 am   BACKBONE|DICT|INTERRES
    95   49   50 1    
    96   49  115 1    
    97   50   51 1    
    98   50   52 1    
    99   50  116 1    
   100   51  117 1    
   101   51  118 1    
   102   51  119 1    
   103   52   53 2    
   104   52   54 am   BACKBONE|DICT|INTERRES
   105   54   55 1    
   106   54  120 1    
   107   55   56 1    
   108   55   57 1    
   109   55  121 1    
   110   56  122 1    
   111   56  123 1    
   112   56  124 1    
   113   57   58 2    
   114   57   59 am   BACKBONE|DICT|INTERRES
   115   59   60 1    
   116   59  125 1    
   117   60   61 1    
   118   60   62 1    
   119   60  126 1    
   120   61  127 1    
   121   61  128 1    
   122   61  129 1    
   123   62   63 2    
   124   62   64 am   BACKBONE|DICT|INTERRES
   125   64   65 1    
   126   64  130 1    
   127   65   66 1    
   128   65   69 1    
   129   65  131 1    
   130   66   67 am   BACKBONE|DICT|INTERRES
   131   66   68 2    
   132   67  132 1    
   133   67  133 1    
   134   69   70 1    
   135   69  134 1    
   136   69  135 1    
   137   70   71 1    
   138   71  136 1    
   139   71  137 1    
@<TRIPOS>SUBSTRUCTURE
     1 UNK         1 GROUP             0       ****    0 ROOT    
