@<TRIPOS>MOLECULE
3R137
137   139    1
SMALL
USER_CHARGES


@<TRIPOS>ATOM
      1 CA         30.0731    1.6024   -2.1258 C.3       0 UNK        -0.2020 
      2 C          29.4918    0.2062   -2.2890 C.2       0 UNK         0.4855 
      3 O          29.1760   -0.1948   -3.4077 O.2       0 UNK        -0.5197 
      4 N          29.3533   -0.5396   -1.1854 N.am      1 UNK        -0.4892 
      5 CA         28.7469   -1.8737   -1.1748 C.3       1 UNK         0.0835 
      6 C6         29.1531   -2.7045    0.0682 C.3       12 UNK        -0.0855 
      7 S7         30.9521   -2.9906    0.1849 S.3       12 UNK        -0.2931 
      8 C8         31.1236   -4.6488   -0.5536 C.3       12 UNK         0.0378 
      9 C9         31.0207   -4.5959   -2.0710 C.ar      12 UNK        -0.0802 
     10 C10        32.1370   -4.2401   -2.8314 C.ar      12 UNK        -0.0944 
     11 C11        32.0551   -4.1609   -4.2249 C.ar      12 UNK        -0.0787 
     12 C12        30.8413   -4.4522   -4.8558 C.ar      12 UNK        -0.0862 
     13 C13        29.7107   -4.8097   -4.1081 C.ar      12 UNK        -0.0733 
     14 C14        29.8177   -4.8979   -2.7158 C.ar      12 UNK        -0.0832 
     15 C15        28.3715   -5.1418   -4.7682 C.3       12 UNK         0.0240 
     16 S16        28.0311   -4.2630   -6.3324 S.3       12 UNK        -0.2522 
     17 C17        28.0828   -2.5125   -5.8246 C.3       12 UNK        -0.0967 
     18 CA         27.3515   -1.6202   -6.8571 C.3       5 UNK         0.0660 
     19 N          25.8993   -1.8200   -6.8336 N.am      5 UNK        -0.4015 
     20 C          25.0442   -1.3646   -7.7591 C.2       4 UNK         0.4946 
     21 O          25.3868   -0.7456   -8.7659 O.2       4 UNK        -0.5353 
     22 CA         23.5484   -1.6132   -7.5001 C.3       4 UNK         0.0277 
     23 CB         23.1587   -3.0453   -7.9002 C.3       4 UNK        -0.1981 
     24 N          23.1656   -1.3668   -6.1069 N.am      4 UNK        -0.4209 
     25 C          23.1839   -0.1597   -5.5230 C.2       3 UNK         0.4942 
     26 O          23.4804    0.8801   -6.1093 O.2       3 UNK        -0.5208 
     27 CA         22.8678   -0.1064   -4.0171 C.3       3 UNK         0.0250 
     28 CB         21.3492   -0.0483   -3.7865 C.3       3 UNK        -0.1990 
     29 N          23.4451   -1.2080   -3.2347 N.am      3 UNK        -0.4232 
     30 C          24.7451   -1.5340   -3.2133 C.2       2 UNK         0.4993 
     31 O          25.5954   -0.9903   -3.9195 O.2       2 UNK        -0.5286 
     32 CA         25.1540   -2.7002   -2.2981 C.3       2 UNK         0.0209 
     33 CB         24.7931   -4.0426   -2.9572 C.3       2 UNK        -0.1931 
     34 N          26.5925   -2.6864   -2.0142 N.am      2 UNK        -0.4546 
     35 C          27.2124   -1.7640   -1.2656 C.2       1 UNK         0.5154 
     36 O          26.6217   -0.8855   -0.6303 O.2       1 UNK        -0.5181 
     37 C          27.7167   -0.1353   -6.6829 C.2       5 UNK         0.5014 
     38 O          28.5798    0.3584   -7.4104 O.2       5 UNK        -0.5248 
     39 N          27.0221    0.5567   -5.7699 N.am      6 UNK        -0.4434 
     40 CA         27.1478    1.9941   -5.5375 C.3       6 UNK         0.0363 
     41 CB         26.3513    2.3861   -4.2834 C.3       6 UNK        -0.1936 
     42 C          26.7127    2.8264   -6.7552 C.2       6 UNK         0.5081 
     43 O          27.4268    3.7558   -7.1300 O.2       6 UNK        -0.5248 
     44 N          25.5796    2.4619   -7.3751 N.am      7 UNK        -0.4718 
     45 CA         25.0599    3.0872   -8.5965 C.3       7 UNK         0.0273 
     46 CB         23.6415    2.5704   -8.8843 C.3       7 UNK        -0.1935 
     47 C          25.9704    2.8757   -9.8176 C.2       7 UNK         0.5018 
     48 O          26.1611    3.8100  -10.5968 O.2       7 UNK        -0.5186 
     49 N          26.5369    1.6678   -9.9487 N.am      8 UNK        -0.4240 
     50 CA         27.5247    1.3191  -10.9747 C.3       8 UNK         0.0235 
     51 CB         27.6404   -0.2123  -11.0568 C.3       8 UNK        -0.2000 
     52 C          28.9143    1.9398  -10.7337 C.2       8 UNK         0.4941 
     53 O          29.7254    1.9512  -11.6606 O.2       8 UNK        -0.5273 
     54 N          29.1704    2.4111   -9.5033 N.am      9 UNK        -0.4262 
     55 CA         30.4487    2.8982   -8.9741 C.3       9 UNK         0.0264 
     56 CB         30.8856    4.2001   -9.6789 C.3       9 UNK        -0.1955 
     57 C          31.5340    1.8034   -8.9819 C.2       9 UNK         0.5031 
     58 O          32.6871    2.0738   -9.3277 O.2       9 UNK        -0.5390 
     59 N          31.1395    0.5775   -8.6100 N.am      10 UNK        -0.4204 
     60 CA         32.0177   -0.5884   -8.5205 C.3       10 UNK         0.0237 
     61 CB         31.1643   -1.8570   -8.3625 C.3       10 UNK        -0.1985 
     62 C          33.0048   -0.4480   -7.3513 C.2       10 UNK         0.4970 
     63 O          32.6189    0.0551   -6.2946 O.2       10 UNK        -0.4914 
     64 N          34.2455   -0.9008   -7.5802 N.am      11 UNK        -0.4285 
     65 CA         35.3974   -0.8919   -6.6565 C.3       11 UNK         0.1007 
     66 C          35.7577    0.4704   -5.9826 C.2       11 UNK         0.5703 
     67 N          35.3376    1.6058   -6.5284 N.am      11 UNK        -0.7361 
     68 O          36.4714    0.5086   -4.9826 O.2       11 UNK        -0.4986 
     69 C69        35.4425   -2.1263   -5.7059 C.3       12 UNK        -0.0947 
     70 S70        34.0802   -2.2567   -4.4977 S.3       12 UNK        -0.2240 
     71 C71        33.2816   -3.7974   -5.0540 C.3       12 UNK         0.0194 
     72 H72        29.3589    2.3472   -2.4761 H         1 UNK         0.0906 
     73 H73        30.9834    1.6988   -2.7171 H         1 UNK         0.0906 
     74 H74        30.3164    1.8253   -1.0872 H         1 UNK         0.0906 
     75 H75        29.6119   -0.1658   -0.2838 H         1 UNK         0.3140 
     76 H76        29.0995   -2.3936   -2.0665 H         1 UNK         0.1085 
     77 H77        28.6424   -3.6694    0.0725 H         1 UNK         0.0836 
     78 H78        28.8348   -2.1980    0.9817 H         1 UNK         0.0836 
     79 H79        32.0948   -5.0581   -0.2711 H         1 UNK         0.0731 
     80 H80        30.3786   -5.3262   -0.1333 H         1 UNK         0.0731 
     81 H81        33.0715   -4.0148   -2.3355 H         1 UNK         0.1312 
     82 H82        30.7814   -4.4048   -5.9341 H         1 UNK         0.1406 
     83 H83        28.9597   -5.1939   -2.1275 H         1 UNK         0.1631 
     84 H84        27.5516   -4.9398   -4.0792 H         1 UNK         0.0717 
     85 H85        28.3457   -6.2139   -4.9669 H         1 UNK         0.0717 
     86 H86        27.6464   -2.3989   -4.8314 H         1 UNK         0.0934 
     87 H87        29.1290   -2.2205   -5.7202 H         1 UNK         0.0934 
     88 H88        27.7001   -1.9030   -7.8531 H         1 UNK         0.0739 
     89 H89        25.5274   -2.2632   -6.0077 H         1 UNK         0.3093 
     90 H90        22.9862   -0.9199   -8.1295 H         1 UNK         0.0818 
     91 H91        23.4214   -3.2430   -8.9406 H         1 UNK         0.0819 
     92 H92        23.6666   -3.7924   -7.2889 H         1 UNK         0.0819 
     93 H93        22.0847   -3.2057   -7.8039 H         1 UNK         0.0819 
     94 H94        22.9024   -2.1665   -5.5500 H         1 UNK         0.3041 
     95 H95        23.3026    0.8183   -3.6323 H         1 UNK         0.0784 
     96 H96        20.9011    0.7744   -4.3459 H         1 UNK         0.0793 
     97 H97        20.8548   -0.9667   -4.1055 H         1 UNK         0.0793 
     98 H98        21.1129    0.1132   -2.7345 H         1 UNK         0.0793 
     99 H99        22.8067   -1.7181   -2.6408 H         1 UNK         0.3024 
    100 H100       24.6163   -2.6051   -1.3518 H         1 UNK         0.1171 
    101 H101       23.7158   -4.1321   -3.1031 H         1 UNK         0.0786 
    102 H102       25.2616   -4.1536   -3.9359 H         1 UNK         0.0786 
    103 H103       25.1014   -4.8859   -2.3388 H         1 UNK         0.0786 
    104 H104       27.1511   -3.3585   -2.5150 H         1 UNK         0.2977 
    105 H105       26.3874    0.0445   -5.1572 H         1 UNK         0.3127 
    106 H106       28.2032    2.2024   -5.3484 H         1 UNK         0.0770 
    107 H107       25.2850    2.1962   -4.4070 H         1 UNK         0.0814 
    108 H108       26.4723    3.4467   -4.0602 H         1 UNK         0.0814 
    109 H109       26.6903    1.8271   -3.4106 H         1 UNK         0.0814 
    110 H110       25.0142    1.7201   -6.9693 H         1 UNK         0.2983 
    111 H111       24.9994    4.1628   -8.4169 H         1 UNK         0.0947 
    112 H112       23.2335    3.0268   -9.7872 H         1 UNK         0.0806 
    113 H113       22.9609    2.8067   -8.0662 H         1 UNK         0.0806 
    114 H114       23.6278    1.4894   -9.0282 H         1 UNK         0.0806 
    115 H115       26.2630    0.9260   -9.3088 H         1 UNK         0.3000 
    116 H116       27.1643    1.6886  -11.9370 H         1 UNK         0.0850 
    117 H117       28.3440   -0.5127  -11.8344 H         1 UNK         0.0810 
    118 H118       26.6802   -0.6707  -11.2941 H         1 UNK         0.0810 
    119 H119       27.9912   -0.6387  -10.1161 H         1 UNK         0.0810 
    120 H120       28.4339    2.3198   -8.8146 H         1 UNK         0.3040 
    121 H121       30.2675    3.1365   -7.9248 H         1 UNK         0.0766 
    122 H122       31.1419    4.0300  -10.7249 H         1 UNK         0.0812 
    123 H123       31.7647    4.6279   -9.1956 H         1 UNK         0.0812 
    124 H124       30.0977    4.9524   -9.6433 H         1 UNK         0.0812 
    125 H125       30.1895    0.4659   -8.2560 H         1 UNK         0.3205 
    126 H126       32.5755   -0.6596   -9.4567 H         1 UNK         0.0754 
    127 H127       31.7884   -2.7515   -8.3568 H         1 UNK         0.0769 
    128 H128       30.4496   -1.9625   -9.1790 H         1 UNK         0.0769 
    129 H129       30.6056   -1.8446   -7.4276 H         1 UNK         0.0769 
    130 H130       34.4476   -1.2735   -8.4965 H         1 UNK         0.2981 
    131 H131       36.2448   -1.0344   -7.3280 H         1 UNK         0.0541 
    132 H132       35.5881    2.4815   -6.0979 H         1 UNK         0.3459 
    133 H133       34.7447    1.5940   -7.3440 H         1 UNK         0.3459 
    134 H134       35.4653   -3.0340   -6.3104 H         1 UNK         0.0612 
    135 H135       36.3808   -2.1399   -5.1490 H         1 UNK         0.0612 
    136 H136       33.0147   -3.6876   -6.1064 H         1 UNK         0.0624 
    137 H137       34.0005   -4.6156   -4.9947 H         1 UNK         0.0624 
@<TRIPOS>BOND
     1    1    2 1    
     2    1   72 1    
     3    1   73 1    
     4    1   74 1    
     5    2    3 2    
     6    2    4 am   BACKBONE|DICT|INTERRES
     7    4    5 1    
     8    4   75 1    
     9    5    6 1    
    10    5   35 1    
    11    5   76 1    
    12    6    7 1    
    13    6   77 1    
    14    6   78 1    
    15    7    8 1    
    16    8    9 1    
    17    8   79 1    
    18    8   80 1    
    19    9   10 ar   
    20    9   14 ar   
    21   10   11 ar   
    22   10   81 1    
    23   11   12 ar   
    24   11   71 1    
    25   12   13 ar   
    26   12   82 1    
    27   13   14 ar   
    28   13   15 1    
    29   14   83 1    
    30   15   16 1    
    31   15   84 1    
    32   15   85 1    
    33   16   17 1    
    34   17   18 1    
    35   17   86 1    
    36   17   87 1    
    37   18   19 1    
    38   18   37 1    
    39   18   88 1    
    40   19   20 am   BACKBONE|DICT|INTERRES
    41   19   89 1    
    42   20   21 2    
    43   20   22 1    
    44   22   23 1    
    45   22   24 1    
    46   22   90 1    
    47   23   91 1    
    48   23   92 1    
    49   23   93 1    
    50   24   25 am   BACKBONE|DICT|INTERRES
    51   24   94 1    
    52   25   26 2    
    53   25   27 1    
    54   27   28 1    
    55   27   29 1    
    56   27   95 1    
    57   28   96 1    
    58   28   97 1    
    59   28   98 1    
    60   29   30 am   BACKBONE|DICT|INTERRES
    61   29   99 1    
    62   30   31 2    
    63   30   32 1    
    64   32   33 1    
    65   32   34 1    
    66   32  100 1    
    67   33  101 1    
    68   33  102 1    
    69   33  103 1    
    70   34   35 am   BACKBONE|DICT|INTERRES
    71   34  104 1    
    72   35   36 2    
    73   37   38 2    
    74   37   39 am   BACKBONE|DICT|INTERRES
    75   39   40 1    
    76   39  105 1    
    77   40   41 1    
    78   40   42 1    
    79   40  106 1    
    80   41  107 1    
    81   41  108 1    
    82   41  109 1    
    83   42   43 2    
    84   42   44 am   BACKBONE|DICT|INTERRES
    85   44   45 1    
    86   44  110 1    
    87   45   46 1    
    88   45   47 1    
    89   45  111 1    
    90   46  112 1    
    91   46  113 1    
    92   46  114 1    
    93   47   48 2    
    94   47   49 am   BACKBONE|DICT|INTERRES
    95   49   50 1    
    96   49  115 1    
    97   50   51 1    
    98   50   52 1    
    99   50  116 1    
   100   51  117 1    
   101   51  118 1    
   102   51  119 1    
   103   52   53 2    
   104   52   54 am   BACKBONE|DICT|INTERRES
   105   54   55 1    
   106   54  120 1    
   107   55   56 1    
   108   55   57 1    
   109   55  121 1    
   110   56  122 1    
   111   56  123 1    
   112   56  124 1    
   113   57   58 2    
   114   57   59 am   BACKBONE|DICT|INTERRES
   115   59   60 1    
   116   59  125 1    
   117   60   61 1    
   118   60   62 1    
   119   60  126 1    
   120   61  127 1    
   121   61  128 1    
   122   61  129 1    
   123   62   63 2    
   124   62   64 am   BACKBONE|DICT|INTERRES
   125   64   65 1    
   126   64  130 1    
   127   65   66 1    
   128   65   69 1    
   129   65  131 1    
   130   66   67 am   BACKBONE|DICT|INTERRES
   131   66   68 2    
   132   67  132 1    
   133   67  133 1    
   134   69   70 1    
   135   69  134 1    
   136   69  135 1    
   137   70   71 1    
   138   71  136 1    
   139   71  137 1    
@<TRIPOS>SUBSTRUCTURE
     1 UNK         1 GROUP             0       ****    0 ROOT    
