@<TRIPOS>MOLECULE
3R137
137   139    1
SMALL
USER_CHARGES


@<TRIPOS>ATOM
      1 CA         25.3712   -7.2523   -0.9643 C.3       0 UNK        -0.2020 
      2 C          25.8141   -5.9904   -1.6889 C.2       0 UNK         0.4855 
      3 O          25.4963   -5.8222   -2.8672 O.2       0 UNK        -0.5197 
      4 N          26.5326   -5.1003   -0.9887 N.am      1 UNK        -0.4892 
      5 CA         27.0977   -3.8197   -1.4492 C.3       1 UNK         0.0835 
      6 C6         28.1044   -3.9650   -2.6239 C.3       12 UNK        -0.0855 
      7 S7         29.6195   -4.8556   -2.1282 S.3       12 UNK        -0.2931 
      8 C8         30.8461   -4.2432   -3.3446 C.3       12 UNK         0.0378 
      9 C9         31.2993   -2.7872   -3.1875 C.ar      12 UNK        -0.0802 
     10 C10        32.1560   -2.2453   -4.1537 C.ar      12 UNK        -0.0944 
     11 C11        32.5965   -0.9195   -4.0634 C.ar      12 UNK        -0.0787 
     12 C12        32.1631   -0.1225   -3.0017 C.ar      12 UNK        -0.0862 
     13 C13        31.2935   -0.6411   -2.0405 C.ar      12 UNK        -0.0733 
     14 C14        30.8914   -1.9762   -2.1211 C.ar      12 UNK        -0.0832 
     15 C15        30.7452    0.2499   -0.9370 C.3       12 UNK         0.0240 
     16 S16        29.5283    1.4494   -1.5744 S.3       12 UNK        -0.2522 
     17 C17        28.3564    0.3987   -2.5082 C.3       12 UNK        -0.0967 
     18 CA         28.4686    0.6118   -4.0431 C.3       5 UNK         0.0660 
     19 N          27.8678   -0.4883   -4.7970 N.am      5 UNK        -0.4015 
     20 C          28.3484   -0.9988   -5.9415 C.2       4 UNK         0.4946 
     21 O          29.4169   -0.6770   -6.4600 O.2       4 UNK        -0.5353 
     22 CA         27.4632   -2.0182   -6.6856 C.3       4 UNK         0.0277 
     23 CB         27.7162   -3.4511   -6.1950 C.3       4 UNK        -0.1981 
     24 N          26.0296   -1.7519   -6.5967 N.am      4 UNK        -0.4209 
     25 C          25.4132   -0.5963   -6.8711 C.2       3 UNK         0.4942 
     26 O          25.9674    0.3774   -7.3813 O.2       3 UNK        -0.5208 
     27 CA         23.9495   -0.4922   -6.4049 C.3       3 UNK         0.0250 
     28 CB         22.9973   -0.8789   -7.5464 C.3       3 UNK        -0.1990 
     29 N          23.6470   -1.3018   -5.2096 N.am      3 UNK        -0.4232 
     30 C          24.2812   -1.2181   -4.0270 C.2       2 UNK         0.4993 
     31 O          25.1865   -0.4107   -3.8130 O.2       2 UNK        -0.5286 
     32 CA         23.8836   -2.2090   -2.9153 C.3       2 UNK         0.0209 
     33 CB         22.6795   -3.1047   -3.2721 C.3       2 UNK        -0.1931 
     34 N          25.0146   -3.0683   -2.5481 N.am      2 UNK        -0.4546 
     35 C          26.0196   -2.7447   -1.7231 C.2       1 UNK         0.5154 
     36 O          26.1022   -1.6613   -1.1451 O.2       1 UNK        -0.5181 
     37 C          27.8090    1.9422   -4.4521 C.2       5 UNK         0.5014 
     38 O          28.5121    2.8763   -4.8358 O.2       5 UNK        -0.5248 
     39 N          26.4726    2.0148   -4.3442 N.am      6 UNK        -0.4434 
     40 CA         25.6887    3.2533   -4.4165 C.3       6 UNK         0.0363 
     41 CB         24.2368    2.9710   -3.9996 C.3       6 UNK        -0.1936 
     42 C          25.7386    3.9755   -5.7727 C.2       6 UNK         0.5081 
     43 O          25.7346    5.2066   -5.7932 O.2       6 UNK        -0.5248 
     44 N          25.8092    3.2131   -6.8702 N.am      7 UNK        -0.4718 
     45 CA         26.0280    3.7252   -8.2265 C.3       7 UNK         0.0273 
     46 CB         25.0015    3.0787   -9.1749 C.3       7 UNK        -0.1935 
     47 C          27.4687    3.4562   -8.7011 C.2       7 UNK         0.5018 
     48 O          27.7724    3.7180   -9.8655 O.2       7 UNK        -0.5186 
     49 N          28.3173    2.9190   -7.8082 N.am      8 UNK        -0.4240 
     50 CA         29.7034    2.4839   -8.0157 C.3       8 UNK         0.0235 
     51 CB         30.6183    3.7011   -8.2636 C.3       8 UNK        -0.2000 
     52 C          29.8582    1.3942   -9.0956 C.2       8 UNK         0.4941 
     53 O          30.9287    1.2784   -9.6942 O.2       8 UNK        -0.5273 
     54 N          28.7943    0.6121   -9.3358 N.am      9 UNK        -0.4262 
     55 CA         28.6925   -0.3367  -10.4473 C.3       9 UNK         0.0264 
     56 CB         27.2355   -0.8108  -10.5857 C.3       9 UNK        -0.1955 
     57 C          29.6708   -1.5250  -10.3861 C.2       9 UNK         0.5031 
     58 O          29.9309   -2.1226  -11.4317 O.2       9 UNK        -0.5390 
     59 N          30.2031   -1.8439   -9.1977 N.am      10 UNK        -0.4204 
     60 CA         31.2239   -2.8803   -9.0098 C.3       10 UNK         0.0237 
     61 CB         30.8635   -3.7147   -7.7707 C.3       10 UNK        -0.1985 
     62 C          32.6417   -2.3022   -8.8617 C.2       10 UNK         0.4970 
     63 O          33.5919   -3.0841   -8.7956 O.2       10 UNK        -0.4914 
     64 N          32.7729   -0.9740   -8.7687 N.am      11 UNK        -0.4285 
     65 CA         34.0343   -0.2875   -8.4621 C.3       11 UNK         0.1007 
     66 C          34.8865   -0.0028   -9.7289 C.2       11 UNK         0.5703 
     67 N          36.1467    0.3724   -9.5525 N.am      11 UNK        -0.7361 
     68 O          34.4267   -0.1046  -10.8654 O.2       11 UNK        -0.4986 
     69 C69        33.8027    0.9946   -7.6134 C.3       12 UNK        -0.0947 
     70 S70        32.6230    0.7782   -6.2340 S.3       12 UNK        -0.2240 
     71 C71        33.5262   -0.3391   -5.1187 C.3       12 UNK         0.0194 
     72 H72        25.7165   -7.2737    0.0693 H         1 UNK         0.0906 
     73 H73        24.2837   -7.3202   -0.9605 H         1 UNK         0.0906 
     74 H74        25.7658   -8.1323   -1.4715 H         1 UNK         0.0906 
     75 H75        26.7279   -5.3088   -0.0187 H         1 UNK         0.3140 
     76 H76        27.6626   -3.4377   -0.5966 H         1 UNK         0.1085 
     77 H77        27.6570   -4.5190   -3.4460 H         1 UNK         0.0836 
     78 H78        28.3814   -2.9887   -3.0246 H         1 UNK         0.0836 
     79 H79        30.4433   -4.3890   -4.3475 H         1 UNK         0.0731 
     80 H80        31.7285   -4.8807   -3.2759 H         1 UNK         0.0731 
     81 H81        32.4809   -2.8585   -4.9831 H         1 UNK         0.1312 
     82 H82        32.4751    0.9115   -2.9431 H         1 UNK         0.1406 
     83 H83        30.2319   -2.3631   -1.3586 H         1 UNK         0.1631 
     84 H84        31.5655    0.7916   -0.4639 H         1 UNK         0.0717 
     85 H85        30.2773   -0.3455   -0.1513 H         1 UNK         0.0717 
     86 H86        28.5362   -0.6454   -2.2589 H         1 UNK         0.0934 
     87 H87        27.3455    0.5958   -2.1454 H         1 UNK         0.0934 
     88 H88        29.5290    0.6685   -4.3018 H         1 UNK         0.0739 
     89 H89        26.9368   -0.7585   -4.4947 H         1 UNK         0.3093 
     90 H90        27.7480   -1.9695   -7.7353 H         1 UNK         0.0818 
     91 H91        27.0579   -3.7096   -5.3685 H         1 UNK         0.0819 
     92 H92        27.5321   -4.1731   -6.9907 H         1 UNK         0.0819 
     93 H93        28.7404   -3.5955   -5.8534 H         1 UNK         0.0819 
     94 H94        25.4645   -2.4886   -6.2016 H         1 UNK         0.3041 
     95 H95        23.7670    0.5523   -6.1528 H         1 UNK         0.0784 
     96 H96        23.1917   -0.2778   -8.4363 H         1 UNK         0.0793 
     97 H97        23.1079   -1.9263   -7.8301 H         1 UNK         0.0793 
     98 H98        21.9563   -0.7133   -7.2686 H         1 UNK         0.0793 
     99 H99        22.9091   -1.9850   -5.3049 H         1 UNK         0.3024 
    100 H100       23.6074   -1.6042   -2.0485 H         1 UNK         0.1171 
    101 H101       21.7990   -2.5103   -3.5209 H         1 UNK         0.0786 
    102 H102       22.4025   -3.7346   -2.4262 H         1 UNK         0.0786 
    103 H103       22.8921   -3.7665   -4.1129 H         1 UNK         0.0786 
    104 H104       25.0280   -4.0117   -2.9297 H         1 UNK         0.2977 
    105 H105       25.9647    1.1771   -4.0606 H         1 UNK         0.3127 
    106 H106       26.1156    3.9372   -3.6797 H         1 UNK         0.0770 
    107 H107       23.7408    2.2886   -4.6878 H         1 UNK         0.0814 
    108 H108       23.6522    3.8918   -3.9787 H         1 UNK         0.0814 
    109 H109       24.1875    2.5343   -3.0019 H         1 UNK         0.0814 
    110 H110       25.8157    2.2000   -6.7805 H         1 UNK         0.2983 
    111 H111       25.8809    4.8068   -8.2573 H         1 UNK         0.0947 
    112 H112       25.0752    3.5022  -10.1773 H         1 UNK         0.0806 
    113 H113       23.9816    3.2457   -8.8287 H         1 UNK         0.0806 
    114 H114       25.1524    2.0030   -9.2672 H         1 UNK         0.0806 
    115 H115       27.9813    2.8072   -6.8584 H         1 UNK         0.3000 
    116 H116       30.0140    2.0207   -7.0783 H         1 UNK         0.0850 
    117 H117       31.6679    3.4080   -8.2738 H         1 UNK         0.0810 
    118 H118       30.5023    4.4486   -7.4789 H         1 UNK         0.0810 
    119 H119       30.4047    4.1791   -9.2200 H         1 UNK         0.0810 
    120 H120       27.9634    0.7495   -8.7744 H         1 UNK         0.3040 
    121 H121       28.9420    0.2169  -11.3552 H         1 UNK         0.0766 
    122 H122       26.8868   -1.3447   -9.7036 H         1 UNK         0.0812 
    123 H123       26.5613    0.0298  -10.7518 H         1 UNK         0.0812 
    124 H124       27.1244   -1.4844  -11.4366 H         1 UNK         0.0812 
    125 H125       29.9543   -1.2963   -8.3781 H         1 UNK         0.3205 
    126 H126       31.2459   -3.5550   -9.8680 H         1 UNK         0.0754 
    127 H127       31.6026   -4.4964   -7.5901 H         1 UNK         0.0769 
    128 H128       29.9024   -4.2104   -7.9013 H         1 UNK         0.0769 
    129 H129       30.8166   -3.0969   -6.8734 H         1 UNK         0.0769 
    130 H130       31.9757   -0.3700   -8.9289 H         1 UNK         0.2981 
    131 H131       34.6387   -0.9641   -7.8564 H         1 UNK         0.0541 
    132 H132       36.7163    0.5666  -10.3614 H         1 UNK         0.3459 
    133 H133       36.5420    0.4624   -8.6296 H         1 UNK         0.3459 
    134 H134       34.7458    1.3610   -7.2047 H         1 UNK         0.0612 
    135 H135       33.4150    1.7942   -8.2460 H         1 UNK         0.0612 
    136 H136       34.3407    0.2068   -4.6406 H         1 UNK         0.0624 
    137 H137       33.9838   -1.1464   -5.6901 H         1 UNK         0.0624 
@<TRIPOS>BOND
     1    1    2 1    
     2    1   72 1    
     3    1   73 1    
     4    1   74 1    
     5    2    3 2    
     6    2    4 am   BACKBONE|DICT|INTERRES
     7    4    5 1    
     8    4   75 1    
     9    5    6 1    
    10    5   35 1    
    11    5   76 1    
    12    6    7 1    
    13    6   77 1    
    14    6   78 1    
    15    7    8 1    
    16    8    9 1    
    17    8   79 1    
    18    8   80 1    
    19    9   10 ar   
    20    9   14 ar   
    21   10   11 ar   
    22   10   81 1    
    23   11   12 ar   
    24   11   71 1    
    25   12   13 ar   
    26   12   82 1    
    27   13   14 ar   
    28   13   15 1    
    29   14   83 1    
    30   15   16 1    
    31   15   84 1    
    32   15   85 1    
    33   16   17 1    
    34   17   18 1    
    35   17   86 1    
    36   17   87 1    
    37   18   19 1    
    38   18   37 1    
    39   18   88 1    
    40   19   20 am   BACKBONE|DICT|INTERRES
    41   19   89 1    
    42   20   21 2    
    43   20   22 1    
    44   22   23 1    
    45   22   24 1    
    46   22   90 1    
    47   23   91 1    
    48   23   92 1    
    49   23   93 1    
    50   24   25 am   BACKBONE|DICT|INTERRES
    51   24   94 1    
    52   25   26 2    
    53   25   27 1    
    54   27   28 1    
    55   27   29 1    
    56   27   95 1    
    57   28   96 1    
    58   28   97 1    
    59   28   98 1    
    60   29   30 am   BACKBONE|DICT|INTERRES
    61   29   99 1    
    62   30   31 2    
    63   30   32 1    
    64   32   33 1    
    65   32   34 1    
    66   32  100 1    
    67   33  101 1    
    68   33  102 1    
    69   33  103 1    
    70   34   35 am   BACKBONE|DICT|INTERRES
    71   34  104 1    
    72   35   36 2    
    73   37   38 2    
    74   37   39 am   BACKBONE|DICT|INTERRES
    75   39   40 1    
    76   39  105 1    
    77   40   41 1    
    78   40   42 1    
    79   40  106 1    
    80   41  107 1    
    81   41  108 1    
    82   41  109 1    
    83   42   43 2    
    84   42   44 am   BACKBONE|DICT|INTERRES
    85   44   45 1    
    86   44  110 1    
    87   45   46 1    
    88   45   47 1    
    89   45  111 1    
    90   46  112 1    
    91   46  113 1    
    92   46  114 1    
    93   47   48 2    
    94   47   49 am   BACKBONE|DICT|INTERRES
    95   49   50 1    
    96   49  115 1    
    97   50   51 1    
    98   50   52 1    
    99   50  116 1    
   100   51  117 1    
   101   51  118 1    
   102   51  119 1    
   103   52   53 2    
   104   52   54 am   BACKBONE|DICT|INTERRES
   105   54   55 1    
   106   54  120 1    
   107   55   56 1    
   108   55   57 1    
   109   55  121 1    
   110   56  122 1    
   111   56  123 1    
   112   56  124 1    
   113   57   58 2    
   114   57   59 am   BACKBONE|DICT|INTERRES
   115   59   60 1    
   116   59  125 1    
   117   60   61 1    
   118   60   62 1    
   119   60  126 1    
   120   61  127 1    
   121   61  128 1    
   122   61  129 1    
   123   62   63 2    
   124   62   64 am   BACKBONE|DICT|INTERRES
   125   64   65 1    
   126   64  130 1    
   127   65   66 1    
   128   65   69 1    
   129   65  131 1    
   130   66   67 am   BACKBONE|DICT|INTERRES
   131   66   68 2    
   132   67  132 1    
   133   67  133 1    
   134   69   70 1    
   135   69  134 1    
   136   69  135 1    
   137   70   71 1    
   138   71  136 1    
   139   71  137 1    
@<TRIPOS>SUBSTRUCTURE
     1 UNK         1 GROUP             0       ****    0 ROOT    
