@<TRIPOS>MOLECULE
3R137
137   139    1
SMALL
USER_CHARGES


@<TRIPOS>ATOM
      1 CA         29.2649   -0.1348    1.5112 C.3       0 UNK        -0.2020 
      2 C          28.9186   -0.9932    0.3041 C.2       0 UNK         0.4855 
      3 O          28.6154   -0.4553   -0.7603 O.2       0 UNK        -0.5197 
      4 N          28.9709   -2.3226    0.4587 N.am      1 UNK        -0.4892 
      5 CA         28.6252   -3.2973   -0.5785 C.3       1 UNK         0.0835 
      6 C6         29.2241   -4.6907   -0.2575 C.3       12 UNK        -0.0855 
      7 S7         29.3524   -5.7797   -1.7176 S.3       12 UNK        -0.2931 
      8 C8         31.0558   -5.4594   -2.2880 C.3       12 UNK         0.0378 
      9 C9         31.1335   -4.1477   -3.0531 C.ar      12 UNK        -0.0802 
     10 C10        31.5073   -2.9678   -2.4048 C.ar      12 UNK        -0.0944 
     11 C11        31.4769   -1.7459   -3.0826 C.ar      12 UNK        -0.0787 
     12 C12        31.1044   -1.7161   -4.4306 C.ar      12 UNK        -0.0862 
     13 C13        30.7837   -2.8987   -5.1068 C.ar      12 UNK        -0.0733 
     14 C14        30.7983   -4.1107   -4.4088 C.ar      12 UNK        -0.0832 
     15 C15        30.4625   -2.8630   -6.5972 C.3       12 UNK         0.0240 
     16 S16        28.9961   -3.8462   -7.0691 S.3       12 UNK        -0.2522 
     17 C17        27.6340   -2.9565   -6.2460 C.3       12 UNK        -0.0967 
     18 CA         26.9811   -1.8968   -7.1703 C.3       5 UNK         0.0660 
     19 N          25.5703   -1.6640   -6.8538 N.am      5 UNK        -0.4015 
     20 C          24.7212   -0.9728   -7.6296 C.2       4 UNK         0.4946 
     21 O          25.0236   -0.4928   -8.7214 O.2       4 UNK        -0.5353 
     22 CA         23.3076   -0.7344   -7.0744 C.3       4 UNK         0.0277 
     23 CB         22.4068   -1.9506   -7.3419 C.3       4 UNK        -0.1981 
     24 N          23.3104   -0.4242   -5.6433 N.am      4 UNK        -0.4209 
     25 C          23.8700    0.6713   -5.1089 C.2       3 UNK         0.4942 
     26 O          24.3878    1.5693   -5.7708 O.2       3 UNK        -0.5208 
     27 CA         23.9047    0.7526   -3.5742 C.3       3 UNK         0.0250 
     28 CB         22.6128    1.3895   -3.0379 C.3       3 UNK        -0.1990 
     29 N          24.1264   -0.5423   -2.9196 N.am      3 UNK        -0.4232 
     30 C          25.2081   -1.3130   -3.0980 C.2       2 UNK         0.4993 
     31 O          26.1226   -1.0511   -3.8866 O.2       2 UNK        -0.5286 
     32 CA         25.2614   -2.6176   -2.3000 C.3       2 UNK         0.0209 
     33 CB         24.7165   -3.7927   -3.1292 C.3       2 UNK        -0.1931 
     34 N          26.6566   -2.8618   -1.9599 N.am      2 UNK        -0.4546 
     35 C          27.0995   -3.3219   -0.7863 C.2       1 UNK         0.5154 
     36 O          26.3648   -3.7126    0.1247 O.2       1 UNK        -0.5181 
     37 C          27.7658   -0.5759   -7.1474 C.2       5 UNK         0.5014 
     38 O          28.4717   -0.2748   -8.1105 O.2       5 UNK        -0.5248 
     39 N          27.5984    0.2016   -6.0679 N.am      6 UNK        -0.4434 
     40 CA         28.2179    1.5159   -5.8830 C.3       6 UNK         0.0363 
     41 CB         27.8546    2.0599   -4.4934 C.3       6 UNK        -0.1936 
     42 C          27.8508    2.5291   -6.9845 C.2       6 UNK         0.5081 
     43 O          28.6951    3.3438   -7.3555 O.2       6 UNK        -0.5248 
     44 N          26.6178    2.4477   -7.5006 N.am      7 UNK        -0.4718 
     45 CA         26.1441    3.2352   -8.6356 C.3       7 UNK         0.0273 
     46 CB         24.6061    3.2547   -8.6430 C.3       7 UNK        -0.1935 
     47 C          26.6934    2.7296   -9.9808 C.2       7 UNK         0.5018 
     48 O          27.2634    3.5239  -10.7301 O.2       7 UNK        -0.5186 
     49 N          26.4703    1.4435  -10.2904 N.am      8 UNK        -0.4240 
     50 CA         26.7126    0.8801  -11.6217 C.3       8 UNK         0.0235 
     51 CB         25.8052   -0.3422  -11.8399 C.3       8 UNK        -0.2000 
     52 C          28.1778    0.5070  -11.8878 C.2       8 UNK         0.4941 
     53 O          28.6859    0.8162  -12.9668 O.2       8 UNK        -0.5273 
     54 N          28.8139   -0.1835  -10.9342 N.am      9 UNK        -0.4262 
     55 CA         30.1630   -0.7396  -11.0778 C.3       9 UNK         0.0264 
     56 CB         30.1750   -2.1755  -10.5281 C.3       9 UNK        -0.1955 
     57 C          31.2241    0.1109  -10.3657 C.2       9 UNK         0.5031 
     58 O          32.3558    0.1714  -10.8492 O.2       9 UNK        -0.5390 
     59 N          30.8334    0.7412   -9.2482 N.am      10 UNK        -0.4204 
     60 CA         31.6420    1.5126   -8.2978 C.3       10 UNK         0.0237 
     61 CB         32.4504    2.6306   -8.9903 C.3       10 UNK        -0.1985 
     62 C          32.5272    0.6213   -7.4090 C.2       10 UNK         0.4970 
     63 O          32.7639   -0.5490   -7.7140 O.2       10 UNK        -0.4914 
     64 N          32.9785    1.2030   -6.2929 N.am      11 UNK        -0.4285 
     65 CA         33.8139    0.5451   -5.2753 C.3       11 UNK         0.1007 
     66 C          35.3303    0.4733   -5.6275 C.2       11 UNK         0.5703 
     67 N          35.7929    1.0941   -6.7068 N.am      11 UNK        -0.7361 
     68 O          36.1020   -0.1662   -4.9173 O.2       11 UNK        -0.4986 
     69 C69        33.5515    1.1756   -3.8787 C.3       12 UNK        -0.0947 
     70 S70        33.5831   -0.0343   -2.5138 S.3       12 UNK        -0.2240 
     71 C71        31.8208   -0.4631   -2.3402 C.3       12 UNK         0.0194 
     72 H72        29.5246   -0.7377    2.3812 H         1 UNK         0.0906 
     73 H73        30.1123    0.5103    1.2805 H         1 UNK         0.0906 
     74 H74        28.4179    0.4973    1.7766 H         1 UNK         0.0906 
     75 H75        29.1879   -2.7076    1.3673 H         1 UNK         0.3140 
     76 H76        29.0694   -2.9434   -1.5083 H         1 UNK         0.1085 
     77 H77        28.6396   -5.2005    0.5110 H         1 UNK         0.0836 
     78 H78        30.2232   -4.5793    0.1667 H         1 UNK         0.0836 
     79 H79        31.7457   -5.4605   -1.4427 H         1 UNK         0.0731 
     80 H80        31.3701   -6.2795   -2.9355 H         1 UNK         0.0731 
     81 H81        31.7777   -2.9931   -1.3578 H         1 UNK         0.1312 
     82 H82        31.0818   -0.7718   -4.9563 H         1 UNK         0.1406 
     83 H83        30.5315   -5.0272   -4.9176 H         1 UNK         0.1631 
     84 H84        31.3250   -3.2517   -7.1400 H         1 UNK         0.0717 
     85 H85        30.3355   -1.8368   -6.9406 H         1 UNK         0.0717 
     86 H86        26.8984   -3.7167   -5.9799 H         1 UNK         0.0934 
     87 H87        27.9700   -2.5348   -5.2963 H         1 UNK         0.0934 
     88 H88        27.0050   -2.2724   -8.1961 H         1 UNK         0.0739 
     89 H89        25.2617   -1.9528   -5.9375 H         1 UNK         0.3093 
     90 H90        22.8874    0.1248   -7.6019 H         1 UNK         0.0818 
     91 H91        22.3804   -2.1878   -8.4066 H         1 UNK         0.0819 
     92 H92        22.7573   -2.8410   -6.8185 H         1 UNK         0.0819 
     93 H93        21.3798   -1.7596   -7.0299 H         1 UNK         0.0819 
     94 H94        22.8937   -1.1023   -5.0223 H         1 UNK         0.3041 
     95 H95        24.7402    1.4009   -3.3026 H         1 UNK         0.0784 
     96 H96        22.4385    2.3633   -3.4983 H         1 UNK         0.0793 
     97 H97        21.7386    0.7705   -3.2443 H         1 UNK         0.0793 
     98 H98        22.6658    1.5488   -1.9607 H         1 UNK         0.0793 
     99 H99        23.4171   -0.8405   -2.2648 H         1 UNK         0.3024 
    100 H100       24.6674   -2.5012   -1.3901 H         1 UNK         0.1171 
    101 H101       23.6751   -3.6283   -3.4084 H         1 UNK         0.0786 
    102 H102       24.7564   -4.7240   -2.5639 H         1 UNK         0.0786 
    103 H103       25.2853   -3.9381   -4.0480 H         1 UNK         0.0786 
    104 H104       27.3153   -2.4672   -2.6202 H         1 UNK         0.2977 
    105 H105       27.0104   -0.1398   -5.3099 H         1 UNK         0.3127 
    106 H106       29.2989    1.3691   -5.9164 H         1 UNK         0.0770 
    107 H107       26.7823    2.2320   -4.3985 H         1 UNK         0.0814 
    108 H108       28.3556    3.0100   -4.3037 H         1 UNK         0.0814 
    109 H109       28.1547    1.3698   -3.7039 H         1 UNK         0.0814 
    110 H110       25.9539    1.8082   -7.0760 H         1 UNK         0.2983 
    111 H111       26.4878    4.2641   -8.5055 H         1 UNK         0.0947 
    112 H112       24.2255    3.8352   -9.4844 H         1 UNK         0.0806 
    113 H113       24.2137    3.7078   -7.7323 H         1 UNK         0.0806 
    114 H114       24.1863    2.2510   -8.7201 H         1 UNK         0.0806 
    115 H115       25.9954    0.8408   -9.6207 H         1 UNK         0.3000 
    116 H116       26.4283    1.6298  -12.3640 H         1 UNK         0.0850 
    117 H117       25.9225   -0.7407  -12.8486 H         1 UNK         0.0810 
    118 H118       24.7538   -0.0835  -11.7133 H         1 UNK         0.0810 
    119 H119       26.0364   -1.1485  -11.1426 H         1 UNK         0.0810 
    120 H120       28.3559   -0.3304  -10.0392 H         1 UNK         0.3040 
    121 H121       30.4375   -0.7889  -12.1339 H         1 UNK         0.0766 
    122 H122       31.1657   -2.6223  -10.6230 H         1 UNK         0.0812 
    123 H123       29.4768   -2.8138  -11.0696 H         1 UNK         0.0812 
    124 H124       29.9053   -2.2047   -9.4729 H         1 UNK         0.0812 
    125 H125       29.8943    0.5242   -8.9178 H         1 UNK         0.3205 
    126 H126       30.9212    1.9925   -7.6374 H         1 UNK         0.0754 
    127 H127       32.8752    3.3192   -8.2594 H         1 UNK         0.0769 
    128 H128       31.8189    3.2198   -9.6555 H         1 UNK         0.0769 
    129 H129       33.2796    2.2349   -9.5773 H         1 UNK         0.0769 
    130 H130       32.7636    2.1747   -6.1236 H         1 UNK         0.2981 
    131 H131       33.4929   -0.4966   -5.2352 H         1 UNK         0.0541 
    132 H132       35.1722    1.6127   -7.3060 H         1 UNK         0.3459 
    133 H133       36.7749    1.0348   -6.9260 H         1 UNK         0.3459 
    134 H134       34.2770    1.9617   -3.6607 H         1 UNK         0.0612 
    135 H135       32.5829    1.6769   -3.8549 H         1 UNK         0.0612 
    136 H136       31.1808    0.3530   -2.6778 H         1 UNK         0.0624 
    137 H137       31.6041   -0.5853   -1.2780 H         1 UNK         0.0624 
@<TRIPOS>BOND
     1    1    2 1    
     2    1   72 1    
     3    1   73 1    
     4    1   74 1    
     5    2    3 2    
     6    2    4 am   BACKBONE|DICT|INTERRES
     7    4    5 1    
     8    4   75 1    
     9    5    6 1    
    10    5   35 1    
    11    5   76 1    
    12    6    7 1    
    13    6   77 1    
    14    6   78 1    
    15    7    8 1    
    16    8    9 1    
    17    8   79 1    
    18    8   80 1    
    19    9   10 ar   
    20    9   14 ar   
    21   10   11 ar   
    22   10   81 1    
    23   11   12 ar   
    24   11   71 1    
    25   12   13 ar   
    26   12   82 1    
    27   13   14 ar   
    28   13   15 1    
    29   14   83 1    
    30   15   16 1    
    31   15   84 1    
    32   15   85 1    
    33   16   17 1    
    34   17   18 1    
    35   17   86 1    
    36   17   87 1    
    37   18   19 1    
    38   18   37 1    
    39   18   88 1    
    40   19   20 am   BACKBONE|DICT|INTERRES
    41   19   89 1    
    42   20   21 2    
    43   20   22 1    
    44   22   23 1    
    45   22   24 1    
    46   22   90 1    
    47   23   91 1    
    48   23   92 1    
    49   23   93 1    
    50   24   25 am   BACKBONE|DICT|INTERRES
    51   24   94 1    
    52   25   26 2    
    53   25   27 1    
    54   27   28 1    
    55   27   29 1    
    56   27   95 1    
    57   28   96 1    
    58   28   97 1    
    59   28   98 1    
    60   29   30 am   BACKBONE|DICT|INTERRES
    61   29   99 1    
    62   30   31 2    
    63   30   32 1    
    64   32   33 1    
    65   32   34 1    
    66   32  100 1    
    67   33  101 1    
    68   33  102 1    
    69   33  103 1    
    70   34   35 am   BACKBONE|DICT|INTERRES
    71   34  104 1    
    72   35   36 2    
    73   37   38 2    
    74   37   39 am   BACKBONE|DICT|INTERRES
    75   39   40 1    
    76   39  105 1    
    77   40   41 1    
    78   40   42 1    
    79   40  106 1    
    80   41  107 1    
    81   41  108 1    
    82   41  109 1    
    83   42   43 2    
    84   42   44 am   BACKBONE|DICT|INTERRES
    85   44   45 1    
    86   44  110 1    
    87   45   46 1    
    88   45   47 1    
    89   45  111 1    
    90   46  112 1    
    91   46  113 1    
    92   46  114 1    
    93   47   48 2    
    94   47   49 am   BACKBONE|DICT|INTERRES
    95   49   50 1    
    96   49  115 1    
    97   50   51 1    
    98   50   52 1    
    99   50  116 1    
   100   51  117 1    
   101   51  118 1    
   102   51  119 1    
   103   52   53 2    
   104   52   54 am   BACKBONE|DICT|INTERRES
   105   54   55 1    
   106   54  120 1    
   107   55   56 1    
   108   55   57 1    
   109   55  121 1    
   110   56  122 1    
   111   56  123 1    
   112   56  124 1    
   113   57   58 2    
   114   57   59 am   BACKBONE|DICT|INTERRES
   115   59   60 1    
   116   59  125 1    
   117   60   61 1    
   118   60   62 1    
   119   60  126 1    
   120   61  127 1    
   121   61  128 1    
   122   61  129 1    
   123   62   63 2    
   124   62   64 am   BACKBONE|DICT|INTERRES
   125   64   65 1    
   126   64  130 1    
   127   65   66 1    
   128   65   69 1    
   129   65  131 1    
   130   66   67 am   BACKBONE|DICT|INTERRES
   131   66   68 2    
   132   67  132 1    
   133   67  133 1    
   134   69   70 1    
   135   69  134 1    
   136   69  135 1    
   137   70   71 1    
   138   71  136 1    
   139   71  137 1    
@<TRIPOS>SUBSTRUCTURE
     1 UNK         1 GROUP             0       ****    0 ROOT    
