@<TRIPOS>MOLECULE
3R137
137   139    1
SMALL
USER_CHARGES


@<TRIPOS>ATOM
      1 CA         26.8573   -7.3830    1.3213 C.3       0 UNK        -0.2020 
      2 C          26.5180   -6.0119    0.7569 C.2       0 UNK         0.4855 
      3 O          25.4770   -5.4475    1.0971 O.2       0 UNK        -0.5197 
      4 N          27.3803   -5.4708   -0.1126 N.am      1 UNK        -0.4892 
      5 CA         27.2414   -4.1566   -0.7541 C.3       1 UNK         0.0835 
      6 C6         28.6111   -3.6019   -1.2207 C.3       12 UNK        -0.0855 
      7 S7         29.7611   -3.2888    0.1604 S.3       12 UNK        -0.2931 
      8 C8         31.3438   -3.0922   -0.7276 C.3       12 UNK         0.0378 
      9 C9         31.2398   -2.1112   -1.8892 C.ar      12 UNK        -0.0802 
     10 C10        31.4014   -2.5573   -3.2033 C.ar      12 UNK        -0.0944 
     11 C11        31.2726   -1.6723   -4.2780 C.ar      12 UNK        -0.0787 
     12 C12        30.9577   -0.3312   -4.0335 C.ar      12 UNK        -0.0862 
     13 C13        30.7877    0.1247   -2.7213 C.ar      12 UNK        -0.0733 
     14 C14        30.9502   -0.7650   -1.6547 C.ar      12 UNK        -0.0832 
     15 C15        30.3955    1.5664   -2.4394 C.3       12 UNK         0.0240 
     16 S16        28.6534    1.6503   -1.9154 S.3       12 UNK        -0.2522 
     17 C17        27.9152    2.7824   -3.1395 C.3       12 UNK        -0.0967 
     18 CA         27.8693    2.2392   -4.5920 C.3       5 UNK         0.0660 
     19 N          27.4068    0.8504   -4.6696 N.am      5 UNK        -0.4015 
     20 C          27.4107    0.0966   -5.7772 C.2       4 UNK         0.4946 
     21 O          27.8768    0.4745   -6.8523 O.2       4 UNK        -0.5353 
     22 CA         26.7320   -1.2835   -5.7012 C.3       4 UNK         0.0277 
     23 CB         27.7914   -2.3874   -5.5760 C.3       4 UNK        -0.1981 
     24 N          25.7307   -1.4248   -4.6318 N.am      4 UNK        -0.4209 
     25 C          24.6305   -0.6608   -4.5074 C.2       3 UNK         0.4942 
     26 O          24.3864    0.2814   -5.2632 O.2       3 UNK        -0.5208 
     27 CA         23.6750   -0.9336   -3.3254 C.3       3 UNK         0.0250 
     28 CB         22.2090   -0.5845   -3.6622 C.3       3 UNK        -0.1990 
     29 N          23.7800   -2.2812   -2.7528 N.am      3 UNK        -0.4232 
     30 C          23.5151   -3.4528   -3.3521 C.2       2 UNK         0.4993 
     31 O          23.0711   -3.5551   -4.4970 O.2       2 UNK        -0.5286 
     32 CA         23.8283   -4.7231   -2.5295 C.3       2 UNK         0.0209 
     33 CB         24.0351   -5.9655   -3.4222 C.3       2 UNK        -0.1931 
     34 N          24.9661   -4.5736   -1.6054 N.am      2 UNK        -0.4546 
     35 C          26.2159   -4.1923   -1.9107 C.2       1 UNK         0.5154 
     36 O          26.5587   -3.8632   -3.0470 O.2       1 UNK        -0.5181 
     37 C          27.0425    3.1992   -5.4769 C.2       5 UNK         0.5014 
     38 O          27.5824    4.2172   -5.9106 O.2       5 UNK        -0.5248 
     39 N          25.7627    2.8745   -5.7302 N.am      6 UNK        -0.4434 
     40 CA         24.8845    3.6429   -6.6169 C.3       6 UNK         0.0363 
     41 CB         23.4158    3.2937   -6.3275 C.3       6 UNK        -0.1936 
     42 C          25.2141    3.4123   -8.1009 C.2       6 UNK         0.5081 
     43 O          25.0512    4.3324   -8.9026 O.2       6 UNK        -0.5248 
     44 N          25.6840    2.2023   -8.4393 N.am      7 UNK        -0.4718 
     45 CA         26.2161    1.8704   -9.7625 C.3       7 UNK         0.0273 
     46 CB         26.2129    0.3455   -9.9617 C.3       7 UNK        -0.1935 
     47 C          27.6284    2.4450   -9.9502 C.2       7 UNK         0.5018 
     48 O          27.9306    2.9695  -11.0228 O.2       7 UNK        -0.5186 
     49 N          28.4571    2.3368   -8.8996 N.am      8 UNK        -0.4240 
     50 CA         29.8283    2.8371   -8.7332 C.3       8 UNK         0.0235 
     51 CB         29.8962    4.3700   -8.8669 C.3       8 UNK        -0.2000 
     52 C          30.8644    2.1511   -9.6361 C.2       8 UNK         0.4941 
     53 O          31.8890    1.6898   -9.1327 O.2       8 UNK        -0.5273 
     54 N          30.5690    2.0435  -10.9380 N.am      9 UNK        -0.4262 
     55 CA         31.4001    1.4290  -11.9816 C.3       9 UNK         0.0264 
     56 CB         30.7012    1.6052  -13.3395 C.3       9 UNK        -0.1955 
     57 C          31.7483   -0.0535  -11.7438 C.2       9 UNK         0.5031 
     58 O          32.6931   -0.5549  -12.3544 O.2       9 UNK        -0.5390 
     59 N          31.0016   -0.7177  -10.8512 N.am      10 UNK        -0.4204 
     60 CA         31.2758   -2.0602  -10.3424 C.3       10 UNK         0.0237 
     61 CB         30.0904   -2.5158   -9.4734 C.3       10 UNK        -0.1985 
     62 C          32.5930   -2.1630   -9.5486 C.2       10 UNK         0.4970 
     63 O          33.2029   -3.2331   -9.5668 O.2       10 UNK        -0.4914 
     64 N          33.0006   -1.0763   -8.8745 N.am      11 UNK        -0.4285 
     65 CA         34.2205   -1.0086   -8.0499 C.3       11 UNK         0.1007 
     66 C          35.1324    0.2029   -8.3861 C.2       11 UNK         0.5703 
     67 N          34.6421    1.2689   -9.0057 N.am      11 UNK        -0.7361 
     68 O          36.3258    0.1652   -8.0952 O.2       11 UNK        -0.4986 
     69 C69        33.9027   -1.0605   -6.5307 C.3       12 UNK        -0.0947 
     70 S70        33.1715   -2.6553   -6.0344 S.3       12 UNK        -0.2240 
     71 C71        31.4458   -2.1887   -5.6984 C.3       12 UNK         0.0194 
     72 H72        27.8054   -7.7592    0.9376 H         1 UNK         0.0906 
     73 H73        26.9269   -7.3340    2.4076 H         1 UNK         0.0906 
     74 H74        26.0778   -8.0988    1.0615 H         1 UNK         0.0906 
     75 H75        28.2133   -5.9843   -0.3640 H         1 UNK         0.3140 
     76 H76        26.8424   -3.4561   -0.0166 H         1 UNK         0.1085 
     77 H77        28.4776   -2.6543   -1.7476 H         1 UNK         0.0836 
     78 H78        29.0795   -4.2843   -1.9330 H         1 UNK         0.0836 
     79 H79        31.6743   -4.0716   -1.0770 H         1 UNK         0.0731 
     80 H80        32.1045   -2.7435   -0.0278 H         1 UNK         0.0731 
     81 H81        31.6247   -3.5979   -3.3959 H         1 UNK         0.1312 
     82 H82        30.8318    0.3516   -4.8626 H         1 UNK         0.1406 
     83 H83        30.8070   -0.4183   -0.6399 H         1 UNK         0.1631 
     84 H84        30.5709    2.1956   -3.3127 H         1 UNK         0.0717 
     85 H85        31.0251    1.9680   -1.6442 H         1 UNK         0.0717 
     86 H86        26.9067    3.0083   -2.7862 H         1 UNK         0.0934 
     87 H87        28.4598    3.7284   -3.1065 H         1 UNK         0.0934 
     88 H88        28.8856    2.2496   -4.9904 H         1 UNK         0.0739 
     89 H89        27.0358    0.4562   -3.8181 H         1 UNK         0.3093 
     90 H90        26.2079   -1.4268   -6.6483 H         1 UNK         0.0818 
     91 H91        28.3368   -2.3186   -4.6336 H         1 UNK         0.0819 
     92 H92        27.3407   -3.3784   -5.6312 H         1 UNK         0.0819 
     93 H93        28.5190   -2.3207   -6.3853 H         1 UNK         0.0819 
     94 H94        25.8706   -2.1999   -3.9902 H         1 UNK         0.3041 
     95 H95        23.9935   -0.2527   -2.5348 H         1 UNK         0.0784 
     96 H96        22.1076    0.4677   -3.9316 H         1 UNK         0.0793 
     97 H97        21.8360   -1.1696   -4.5033 H         1 UNK         0.0793 
     98 H98        21.5520   -0.7626   -2.8110 H         1 UNK         0.0793 
     99 H99        24.1401   -2.3232   -1.8095 H         1 UNK         0.3024 
    100 H100       22.9471   -4.9027   -1.9112 H         1 UNK         0.1171 
    101 H101       24.2317   -6.8553   -2.8242 H         1 UNK         0.0786 
    102 H102       23.1483   -6.1713   -4.0230 H         1 UNK         0.0786 
    103 H103       24.8710   -5.8322   -4.1100 H         1 UNK         0.0786 
    104 H104       24.7984   -4.8357   -0.6367 H         1 UNK         0.2977 
    105 H105       25.3830    2.0038   -5.3685 H         1 UNK         0.3127 
    106 H106       25.0258    4.7053   -6.4055 H         1 UNK         0.0770 
    107 H107       23.1895    2.2550   -6.5705 H         1 UNK         0.0814 
    108 H108       22.7456    3.9175   -6.9203 H         1 UNK         0.0814 
    109 H109       23.1666    3.4553   -5.2787 H         1 UNK         0.0814 
    110 H110       25.7998    1.5105   -7.7122 H         1 UNK         0.2983 
    111 H111       25.5698    2.3143  -10.5233 H         1 UNK         0.0947 
    112 H112       26.5796    0.0834  -10.9551 H         1 UNK         0.0806 
    113 H113       25.2061   -0.0627   -9.8714 H         1 UNK         0.0806 
    114 H114       26.8468   -0.1658   -9.2368 H         1 UNK         0.0806 
    115 H115       28.1212    1.7850   -8.1112 H         1 UNK         0.3000 
    116 H116       30.1006    2.5892   -7.7057 H         1 UNK         0.0850 
    117 H117       30.9002    4.7350   -8.6465 H         1 UNK         0.0810 
    118 H118       29.2142    4.8560   -8.1689 H         1 UNK         0.0810 
    119 H119       29.6422    4.7075   -9.8721 H         1 UNK         0.0810 
    120 H120       29.6757    2.4351  -11.2320 H         1 UNK         0.3040 
    121 H121       32.3445    1.9763  -12.0065 H         1 UNK         0.0766 
    122 H122       31.3028    1.1874  -14.1481 H         1 UNK         0.0812 
    123 H123       30.5403    2.6587  -13.5694 H         1 UNK         0.0812 
    124 H124       29.7319    1.1054  -13.3609 H         1 UNK         0.0812 
    125 H125       30.2416   -0.2153  -10.4178 H         1 UNK         0.3205 
    126 H126       31.3550   -2.7324  -11.1994 H         1 UNK         0.0754 
    127 H127       29.9253   -1.8450   -8.6293 H         1 UNK         0.0769 
    128 H128       30.2633   -3.5137   -9.0676 H         1 UNK         0.0769 
    129 H129       29.1674   -2.5588  -10.0521 H         1 UNK         0.0769 
    130 H130       32.4686   -0.2160   -8.9449 H         1 UNK         0.2981 
    131 H131       34.8433   -1.8761   -8.2762 H         1 UNK         0.0541 
    132 H132       33.6433    1.3767   -9.1639 H         1 UNK         0.3459 
    133 H133       35.2632    2.0317   -9.2215 H         1 UNK         0.3459 
    134 H134       33.2426   -0.2393   -6.2462 H         1 UNK         0.0612 
    135 H135       34.8135   -0.9346   -5.9424 H         1 UNK         0.0612 
    136 H136       30.8190   -3.0708   -5.8340 H         1 UNK         0.0624 
    137 H137       31.1077   -1.4556   -6.4324 H         1 UNK         0.0624 
@<TRIPOS>BOND
     1    1    2 1    
     2    1   72 1    
     3    1   73 1    
     4    1   74 1    
     5    2    3 2    
     6    2    4 am   BACKBONE|DICT|INTERRES
     7    4    5 1    
     8    4   75 1    
     9    5    6 1    
    10    5   35 1    
    11    5   76 1    
    12    6    7 1    
    13    6   77 1    
    14    6   78 1    
    15    7    8 1    
    16    8    9 1    
    17    8   79 1    
    18    8   80 1    
    19    9   10 ar   
    20    9   14 ar   
    21   10   11 ar   
    22   10   81 1    
    23   11   12 ar   
    24   11   71 1    
    25   12   13 ar   
    26   12   82 1    
    27   13   14 ar   
    28   13   15 1    
    29   14   83 1    
    30   15   16 1    
    31   15   84 1    
    32   15   85 1    
    33   16   17 1    
    34   17   18 1    
    35   17   86 1    
    36   17   87 1    
    37   18   19 1    
    38   18   37 1    
    39   18   88 1    
    40   19   20 am   BACKBONE|DICT|INTERRES
    41   19   89 1    
    42   20   21 2    
    43   20   22 1    
    44   22   23 1    
    45   22   24 1    
    46   22   90 1    
    47   23   91 1    
    48   23   92 1    
    49   23   93 1    
    50   24   25 am   BACKBONE|DICT|INTERRES
    51   24   94 1    
    52   25   26 2    
    53   25   27 1    
    54   27   28 1    
    55   27   29 1    
    56   27   95 1    
    57   28   96 1    
    58   28   97 1    
    59   28   98 1    
    60   29   30 am   BACKBONE|DICT|INTERRES
    61   29   99 1    
    62   30   31 2    
    63   30   32 1    
    64   32   33 1    
    65   32   34 1    
    66   32  100 1    
    67   33  101 1    
    68   33  102 1    
    69   33  103 1    
    70   34   35 am   BACKBONE|DICT|INTERRES
    71   34  104 1    
    72   35   36 2    
    73   37   38 2    
    74   37   39 am   BACKBONE|DICT|INTERRES
    75   39   40 1    
    76   39  105 1    
    77   40   41 1    
    78   40   42 1    
    79   40  106 1    
    80   41  107 1    
    81   41  108 1    
    82   41  109 1    
    83   42   43 2    
    84   42   44 am   BACKBONE|DICT|INTERRES
    85   44   45 1    
    86   44  110 1    
    87   45   46 1    
    88   45   47 1    
    89   45  111 1    
    90   46  112 1    
    91   46  113 1    
    92   46  114 1    
    93   47   48 2    
    94   47   49 am   BACKBONE|DICT|INTERRES
    95   49   50 1    
    96   49  115 1    
    97   50   51 1    
    98   50   52 1    
    99   50  116 1    
   100   51  117 1    
   101   51  118 1    
   102   51  119 1    
   103   52   53 2    
   104   52   54 am   BACKBONE|DICT|INTERRES
   105   54   55 1    
   106   54  120 1    
   107   55   56 1    
   108   55   57 1    
   109   55  121 1    
   110   56  122 1    
   111   56  123 1    
   112   56  124 1    
   113   57   58 2    
   114   57   59 am   BACKBONE|DICT|INTERRES
   115   59   60 1    
   116   59  125 1    
   117   60   61 1    
   118   60   62 1    
   119   60  126 1    
   120   61  127 1    
   121   61  128 1    
   122   61  129 1    
   123   62   63 2    
   124   62   64 am   BACKBONE|DICT|INTERRES
   125   64   65 1    
   126   64  130 1    
   127   65   66 1    
   128   65   69 1    
   129   65  131 1    
   130   66   67 am   BACKBONE|DICT|INTERRES
   131   66   68 2    
   132   67  132 1    
   133   67  133 1    
   134   69   70 1    
   135   69  134 1    
   136   69  135 1    
   137   70   71 1    
   138   71  136 1    
   139   71  137 1    
@<TRIPOS>SUBSTRUCTURE
     1 UNK         1 GROUP             0       ****    0 ROOT    
