@<TRIPOS>MOLECULE
3R137
137   139    1
SMALL
USER_CHARGES


@<TRIPOS>ATOM
      1 CA         29.5117    2.6836   -3.0359 C.3       0 UNK        -0.2020 
      2 C          29.1180    1.2198   -3.1661 C.2       0 UNK         0.4855 
      3 O          29.1333    0.6838   -4.2725 O.2       0 UNK        -0.5197 
      4 N          28.7749    0.5758   -2.0472 N.am      1 UNK        -0.4892 
      5 CA         28.3262   -0.8183   -1.9854 C.3       1 UNK         0.0835 
      6 C6         29.1301   -1.6315   -0.9340 C.3       12 UNK        -0.0855 
      7 S7         30.9245   -1.6424   -1.2872 S.3       12 UNK        -0.2931 
      8 C8         31.2647   -3.4040   -1.5942 C.3       12 UNK         0.0378 
      9 C9         30.9625   -3.8160   -3.0289 C.ar      12 UNK        -0.0802 
     10 C10        31.9800   -3.8096   -3.9891 C.ar      12 UNK        -0.0944 
     11 C11        31.7391   -4.2615   -5.2913 C.ar      12 UNK        -0.0787 
     12 C12        30.4603   -4.7209   -5.6240 C.ar      12 UNK        -0.0862 
     13 C13        29.4218   -4.6916   -4.6879 C.ar      12 UNK        -0.0733 
     14 C14        29.6828   -4.2488   -3.3878 C.ar      12 UNK        -0.0832 
     15 C15        28.0187   -5.1466   -5.0736 C.3       12 UNK         0.0240 
     16 S16        27.4070   -4.3531   -6.5988 S.3       12 UNK        -0.2522 
     17 C17        27.6320   -2.5850   -6.2077 C.3       12 UNK        -0.0967 
     18 CA         26.8580   -1.6642   -7.1801 C.3       5 UNK         0.0660 
     19 N          25.4251   -1.9730   -7.1812 N.am      5 UNK        -0.4015 
     20 C          24.4370   -1.3297   -7.8204 C.2       4 UNK         0.4946 
     21 O          24.6184   -0.4265   -8.6378 O.2       4 UNK        -0.5353 
     22 CA         22.9966   -1.7071   -7.4111 C.3       4 UNK         0.0277 
     23 CB         22.3546   -2.6056   -8.4802 C.3       4 UNK        -0.1981 
     24 N          22.8944   -2.3648   -6.0965 N.am      4 UNK        -0.4209 
     25 C          23.3379   -1.8553   -4.9360 C.2       3 UNK         0.4942 
     26 O          23.8194   -0.7231   -4.8335 O.2       3 UNK        -0.5208 
     27 CA         23.3273   -2.7943   -3.7197 C.3       3 UNK         0.0250 
     28 CB         24.0238   -4.1378   -4.0376 C.3       3 UNK        -0.1990 
     29 N          24.0150   -2.1225   -2.6193 N.am      3 UNK        -0.4232 
     30 C          24.0307   -2.4888   -1.3347 C.2       2 UNK         0.4993 
     31 O          23.4305   -3.4735   -0.8992 O.2       2 UNK        -0.5286 
     32 CA         24.8773   -1.6161   -0.3852 C.3       2 UNK         0.0209 
     33 CB         24.7869   -2.0776    1.0823 C.3       2 UNK        -0.1931 
     34 N          26.2921   -1.5718   -0.7773 N.am      2 UNK        -0.4546 
     35 C          26.7983   -0.8043   -1.7535 C.2       1 UNK         0.5154 
     36 O          26.0893   -0.0853   -2.4603 O.2       1 UNK        -0.5181 
     37 C          27.1811   -0.1885   -6.8617 C.2       5 UNK         0.5014 
     38 O          28.2171    0.2949   -7.3185 O.2       5 UNK        -0.5248 
     39 N          26.2857    0.5181   -6.1500 N.am      6 UNK        -0.4434 
     40 CA         26.3507    1.9605   -5.8943 C.3       6 UNK         0.0363 
     41 CB         25.1267    2.3866   -5.0702 C.3       6 UNK        -0.1936 
     42 C          26.4698    2.8236   -7.1639 C.2       6 UNK         0.5081 
     43 O          27.1007    3.8788   -7.1094 O.2       6 UNK        -0.5248 
     44 N          25.9193    2.3487   -8.2921 N.am      7 UNK        -0.4718 
     45 CA         26.0657    2.9773   -9.6087 C.3       7 UNK         0.0273 
     46 CB         25.0421    2.3645  -10.5775 C.3       7 UNK        -0.1935 
     47 C          27.4898    2.8632  -10.1882 C.2       7 UNK         0.5018 
     48 O          27.8633    3.6921  -11.0187 O.2       7 UNK        -0.5186 
     49 N          28.2555    1.8557   -9.7455 N.am      8 UNK        -0.4240 
     50 CA         29.6525    1.6274  -10.1216 C.3       8 UNK         0.0235 
     51 CB         29.8703    0.1188  -10.3343 C.3       8 UNK        -0.2000 
     52 C          30.6394    2.1735   -9.0730 C.2       8 UNK         0.4941 
     53 O          31.8432    2.1349   -9.3275 O.2       8 UNK        -0.5273 
     54 N          30.1310    2.6521   -7.9247 N.am      9 UNK        -0.4262 
     55 CA         30.8600    3.2278   -6.7879 C.3       9 UNK         0.0264 
     56 CB         31.4151    4.6185   -7.1602 C.3       9 UNK        -0.1955 
     57 C          31.9421    2.2768   -6.2410 C.2       9 UNK         0.5031 
     58 O          33.1293    2.6072   -6.2728 O.2       9 UNK        -0.5390 
     59 N          31.4988    1.0997   -5.7767 N.am      10 UNK        -0.4204 
     60 CA         32.3054   -0.0196   -5.2760 C.3       10 UNK         0.0237 
     61 CB         33.0101    0.3474   -3.9527 C.3       10 UNK        -0.1985 
     62 C          33.2611   -0.5847   -6.3442 C.2       10 UNK         0.4970 
     63 O          34.4168   -0.8893   -6.0424 O.2       10 UNK        -0.4914 
     64 N          32.7373   -0.7307   -7.5687 N.am      11 UNK        -0.4285 
     65 CA         33.4146   -1.3077   -8.7415 C.3       11 UNK         0.1007 
     66 C          34.5979   -0.4387   -9.2613 C.2       11 UNK         0.5703 
     67 N          34.4487    0.8786   -9.3151 N.am      11 UNK        -0.7361 
     68 O          35.6529   -0.9495   -9.6322 O.2       11 UNK        -0.4986 
     69 C69        33.7834   -2.8111   -8.5616 C.3       12 UNK        -0.0947 
     70 S70        32.3705   -3.8242   -8.0010 S.3       12 UNK        -0.2240 
     71 C71        32.8808   -4.2830   -6.3057 C.3       12 UNK         0.0194 
     72 H72        28.8857    3.3000   -3.6803 H         1 UNK         0.0906 
     73 H73        29.4034    3.0455   -2.0136 H         1 UNK         0.0906 
     74 H74        30.5507    2.8196   -3.3344 H         1 UNK         0.0906 
     75 H75        28.7556    1.0775   -1.1708 H         1 UNK         0.3140 
     76 H76        28.4738   -1.3037   -2.9530 H         1 UNK         0.1085 
     77 H77        28.9937   -1.2094    0.0636 H         1 UNK         0.0836 
     78 H78        28.7729   -2.6604   -0.8822 H         1 UNK         0.0836 
     79 H79        30.7054   -4.0240   -0.8918 H         1 UNK         0.0731 
     80 H80        32.3174   -3.5906   -1.3760 H         1 UNK         0.0731 
     81 H81        32.9697   -3.4713   -3.7132 H         1 UNK         0.1312 
     82 H82        30.2618   -5.0871   -6.6218 H         1 UNK         0.1406 
     83 H83        28.8927   -4.2555   -2.6503 H         1 UNK         0.1631 
     84 H84        27.3117   -4.9453   -4.2678 H         1 UNK         0.0717 
     85 H85        28.0241   -6.2278   -5.2166 H         1 UNK         0.0717 
     86 H86        28.7016   -2.3646   -6.2459 H         1 UNK         0.0934 
     87 H87        27.3198   -2.4059   -5.1765 H         1 UNK         0.0934 
     88 H88        27.2186   -1.8514   -8.1936 H         1 UNK         0.0739 
     89 H89        25.1562   -2.7245   -6.5654 H         1 UNK         0.3093 
     90 H90        22.4278   -0.7766   -7.3555 H         1 UNK         0.0818 
     91 H91        21.3052   -2.8006   -8.2585 H         1 UNK         0.0819 
     92 H92        22.3923   -2.1311   -9.4620 H         1 UNK         0.0819 
     93 H93        22.8664   -3.5653   -8.5628 H         1 UNK         0.0819 
     94 H94        22.5031   -3.2962   -6.0937 H         1 UNK         0.3041 
     95 H95        22.2887   -2.9706   -3.4335 H         1 UNK         0.0784 
     96 H96        23.5058   -4.6880   -4.8234 H         1 UNK         0.0793 
     97 H97        25.0527   -3.9863   -4.3641 H         1 UNK         0.0793 
     98 H98        24.0486   -4.7947   -3.1684 H         1 UNK         0.0793 
     99 H99        24.5132   -1.2764   -2.8924 H         1 UNK         0.3024 
    100 H100       24.4660   -0.6049   -0.4368 H         1 UNK         0.1171 
    101 H101       25.3384   -1.4088    1.7435 H         1 UNK         0.0786 
    102 H102       25.1838   -3.0848    1.2155 H         1 UNK         0.0786 
    103 H103       23.7517   -2.0866    1.4264 H         1 UNK         0.0786 
    104 H104       26.9170   -2.1602   -0.2461 H         1 UNK         0.2977 
    105 H105       25.4687    0.0407   -5.7812 H         1 UNK         0.3127 
    106 H106       27.2435    2.1473   -5.2987 H         1 UNK         0.0770 
    107 H107       24.1947    2.1827   -5.5991 H         1 UNK         0.0814 
    108 H108       25.1540    3.4545   -4.8496 H         1 UNK         0.0814 
    109 H109       25.0905    1.8601   -4.1162 H         1 UNK         0.0814 
    110 H110       25.4331    1.4569   -8.2657 H         1 UNK         0.2983 
    111 H111       25.8420    4.0412   -9.5030 H         1 UNK         0.0947 
    112 H112       25.0918    2.8465  -11.5549 H         1 UNK         0.0806 
    113 H113       24.0235    2.4849  -10.2083 H         1 UNK         0.0806 
    114 H114       25.2193    1.2990  -10.7298 H         1 UNK         0.0806 
    115 H115       27.8927    1.2451   -9.0199 H         1 UNK         0.3000 
    116 H116       29.8704    2.1353  -11.0634 H         1 UNK         0.0850 
    117 H117       30.8780   -0.0800  -10.7004 H         1 UNK         0.0810 
    118 H118       29.1763   -0.2811  -11.0736 H         1 UNK         0.0810 
    119 H119       29.7389   -0.4471   -9.4114 H         1 UNK         0.0810 
    120 H120       29.1286    2.5924   -7.8072 H         1 UNK         0.3040 
    121 H121       30.1292    3.3668   -5.9900 H         1 UNK         0.0766 
    122 H122       31.9010    5.0866   -6.3034 H         1 UNK         0.0812 
    123 H123       30.6188    5.2872   -7.4874 H         1 UNK         0.0812 
    124 H124       32.1533    4.5591   -7.9609 H         1 UNK         0.0812 
    125 H125       30.4933    0.9497   -5.7220 H         1 UNK         0.3205 
    126 H126       31.5988   -0.8209   -5.0516 H         1 UNK         0.0754 
    127 H127       33.5037   -0.5241   -3.5209 H         1 UNK         0.0769 
    128 H128       32.2962    0.7091   -3.2127 H         1 UNK         0.0769 
    129 H129       33.7694    1.1168   -4.0951 H         1 UNK         0.0769 
    130 H130       31.7905   -0.4190   -7.7206 H         1 UNK         0.2981 
    131 H131       32.6778   -1.2692   -9.5437 H         1 UNK         0.0541 
    132 H132       33.5578    1.3140   -9.0894 H         1 UNK         0.3459 
    133 H133       35.2103    1.4465   -9.6485 H         1 UNK         0.3459 
    134 H134       34.6253   -2.9243   -7.8775 H         1 UNK         0.0612 
    135 H135       34.1199   -3.2259   -9.5131 H         1 UNK         0.0612 
    136 H136       33.6726   -3.6136   -5.9687 H         1 UNK         0.0624 
    137 H137       33.3143   -5.2833   -6.3299 H         1 UNK         0.0624 
@<TRIPOS>BOND
     1    1    2 1    
     2    1   72 1    
     3    1   73 1    
     4    1   74 1    
     5    2    3 2    
     6    2    4 am   BACKBONE|DICT|INTERRES
     7    4    5 1    
     8    4   75 1    
     9    5    6 1    
    10    5   35 1    
    11    5   76 1    
    12    6    7 1    
    13    6   77 1    
    14    6   78 1    
    15    7    8 1    
    16    8    9 1    
    17    8   79 1    
    18    8   80 1    
    19    9   10 ar   
    20    9   14 ar   
    21   10   11 ar   
    22   10   81 1    
    23   11   12 ar   
    24   11   71 1    
    25   12   13 ar   
    26   12   82 1    
    27   13   14 ar   
    28   13   15 1    
    29   14   83 1    
    30   15   16 1    
    31   15   84 1    
    32   15   85 1    
    33   16   17 1    
    34   17   18 1    
    35   17   86 1    
    36   17   87 1    
    37   18   19 1    
    38   18   37 1    
    39   18   88 1    
    40   19   20 am   BACKBONE|DICT|INTERRES
    41   19   89 1    
    42   20   21 2    
    43   20   22 1    
    44   22   23 1    
    45   22   24 1    
    46   22   90 1    
    47   23   91 1    
    48   23   92 1    
    49   23   93 1    
    50   24   25 am   BACKBONE|DICT|INTERRES
    51   24   94 1    
    52   25   26 2    
    53   25   27 1    
    54   27   28 1    
    55   27   29 1    
    56   27   95 1    
    57   28   96 1    
    58   28   97 1    
    59   28   98 1    
    60   29   30 am   BACKBONE|DICT|INTERRES
    61   29   99 1    
    62   30   31 2    
    63   30   32 1    
    64   32   33 1    
    65   32   34 1    
    66   32  100 1    
    67   33  101 1    
    68   33  102 1    
    69   33  103 1    
    70   34   35 am   BACKBONE|DICT|INTERRES
    71   34  104 1    
    72   35   36 2    
    73   37   38 2    
    74   37   39 am   BACKBONE|DICT|INTERRES
    75   39   40 1    
    76   39  105 1    
    77   40   41 1    
    78   40   42 1    
    79   40  106 1    
    80   41  107 1    
    81   41  108 1    
    82   41  109 1    
    83   42   43 2    
    84   42   44 am   BACKBONE|DICT|INTERRES
    85   44   45 1    
    86   44  110 1    
    87   45   46 1    
    88   45   47 1    
    89   45  111 1    
    90   46  112 1    
    91   46  113 1    
    92   46  114 1    
    93   47   48 2    
    94   47   49 am   BACKBONE|DICT|INTERRES
    95   49   50 1    
    96   49  115 1    
    97   50   51 1    
    98   50   52 1    
    99   50  116 1    
   100   51  117 1    
   101   51  118 1    
   102   51  119 1    
   103   52   53 2    
   104   52   54 am   BACKBONE|DICT|INTERRES
   105   54   55 1    
   106   54  120 1    
   107   55   56 1    
   108   55   57 1    
   109   55  121 1    
   110   56  122 1    
   111   56  123 1    
   112   56  124 1    
   113   57   58 2    
   114   57   59 am   BACKBONE|DICT|INTERRES
   115   59   60 1    
   116   59  125 1    
   117   60   61 1    
   118   60   62 1    
   119   60  126 1    
   120   61  127 1    
   121   61  128 1    
   122   61  129 1    
   123   62   63 2    
   124   62   64 am   BACKBONE|DICT|INTERRES
   125   64   65 1    
   126   64  130 1    
   127   65   66 1    
   128   65   69 1    
   129   65  131 1    
   130   66   67 am   BACKBONE|DICT|INTERRES
   131   66   68 2    
   132   67  132 1    
   133   67  133 1    
   134   69   70 1    
   135   69  134 1    
   136   69  135 1    
   137   70   71 1    
   138   71  136 1    
   139   71  137 1    
@<TRIPOS>SUBSTRUCTURE
     1 UNK         1 GROUP             0       ****    0 ROOT    
