@<TRIPOS>MOLECULE
3R137
137   139    1
SMALL
USER_CHARGES


@<TRIPOS>ATOM
      1 CA         26.9232   -6.0926    1.4916 C.3       0 UNK        -0.2020 
      2 C          26.9527   -4.8633    0.5965 C.2       0 UNK         0.4855 
      3 O          26.8564   -4.9945   -0.6240 O.2       0 UNK        -0.5197 
      4 N          27.0714   -3.6683    1.1935 N.am      1 UNK        -0.4892 
      5 CA         27.1308   -2.3409    0.5565 C.3       1 UNK         0.0835 
      6 C6         28.2618   -2.2191   -0.5000 C.3       12 UNK        -0.0855 
      7 S7         29.0194   -0.5608   -0.5491 S.3       12 UNK        -0.2931 
      8 C8         30.6893   -0.9532   -1.1652 C.3       12 UNK         0.0378 
      9 C9         30.6739   -1.2989   -2.6477 C.ar      12 UNK        -0.0802 
     10 C10        30.9682   -0.3203   -3.6009 C.ar      12 UNK        -0.0944 
     11 C11        30.9425   -0.6276   -4.9642 C.ar      12 UNK        -0.0787 
     12 C12        30.6230   -1.9264   -5.3716 C.ar      12 UNK        -0.0862 
     13 C13        30.3191   -2.9141   -4.4287 C.ar      12 UNK        -0.0733 
     14 C14        30.3638   -2.5956   -3.0688 C.ar      12 UNK        -0.0832 
     15 C15        29.9628   -4.3333   -4.8586 C.3       12 UNK         0.0240 
     16 S16        28.6913   -4.4157   -6.1641 S.3       12 UNK        -0.2522 
     17 C17        27.2262   -3.6647   -5.3717 C.3       12 UNK        -0.0967 
     18 CA         26.5818   -2.5918   -6.2898 C.3       5 UNK         0.0660 
     19 N          25.1341   -2.4899   -6.1040 N.am      5 UNK        -0.4015 
     20 C          24.2494   -2.3940   -7.1082 C.2       4 UNK         0.4946 
     21 O          24.5464   -2.4883   -8.3001 O.2       4 UNK        -0.5353 
     22 CA         22.7755   -2.1419   -6.7381 C.3       4 UNK         0.0277 
     23 CB         22.0053   -3.4708   -6.6704 C.3       4 UNK        -0.1981 
     24 N          22.5901   -1.4141   -5.4813 N.am      4 UNK        -0.4209 
     25 C          23.0394   -0.1762   -5.2299 C.2       3 UNK         0.4942 
     26 O          23.6403    0.5185   -6.0480 O.2       3 UNK        -0.5208 
     27 CA         22.8334    0.3524   -3.8008 C.3       3 UNK         0.0250 
     28 CB         21.4864    1.0843   -3.6912 C.3       3 UNK        -0.1990 
     29 N          22.9185   -0.6767   -2.7556 N.am      3 UNK        -0.4232 
     30 C          23.9449   -1.5184   -2.5622 C.2       2 UNK         0.4993 
     31 O          24.9362   -1.5852   -3.2964 O.2       2 UNK        -0.5286 
     32 CA         23.8022   -2.5030   -1.3938 C.3       2 UNK         0.0209 
     33 CB         23.2281   -3.8385   -1.8938 C.3       2 UNK        -0.1931 
     34 N          25.0885   -2.7537   -0.7477 N.am      2 UNK        -0.4546 
     35 C          25.7680   -1.8746   -0.0016 C.2       1 UNK         0.5154 
     36 O          25.3425   -0.7539    0.2838 O.2       1 UNK        -0.5181 
     37 C          27.2283   -1.2074   -6.1151 C.2       5 UNK         0.5014 
     38 O          28.0189   -0.8050   -6.9672 O.2       5 UNK        -0.5248 
     39 N          26.8626   -0.4863   -5.0430 N.am      6 UNK        -0.4434 
     40 CA         27.4550    0.7974   -4.6488 C.3       6 UNK         0.0363 
     41 CB         26.8599    1.2465   -3.3062 C.3       6 UNK        -0.1936 
     42 C          27.3490    1.9213   -5.6967 C.2       6 UNK         0.5081 
     43 O          28.1848    2.8250   -5.6892 O.2       6 UNK        -0.5248 
     44 N          26.3447    1.8515   -6.5808 N.am      7 UNK        -0.4718 
     45 CA         26.1623    2.7742   -7.7031 C.3       7 UNK         0.0273 
     46 CB         24.7093    2.6769   -8.1971 C.3       7 UNK        -0.1935 
     47 C          27.1424    2.5566   -8.8745 C.2       7 UNK         0.5018 
     48 O          27.2037    3.4233   -9.7490 O.2       7 UNK        -0.5186 
     49 N          27.8618    1.4233   -8.9150 N.am      8 UNK        -0.4240 
     50 CA         28.8143    1.1001   -9.9825 C.3       8 UNK         0.0235 
     51 CB         29.2039   -0.3852   -9.9023 C.3       8 UNK        -0.2000 
     52 C          30.0712    1.9843   -9.9250 C.2       8 UNK         0.4941 
     53 O          30.5594    2.2932   -8.8360 O.2       8 UNK        -0.5273 
     54 N          30.5891    2.3454  -11.1039 N.am      9 UNK        -0.4262 
     55 CA         31.8484    3.0711  -11.2632 C.3       9 UNK         0.0264 
     56 CB         31.7778    3.9224  -12.5420 C.3       9 UNK        -0.1955 
     57 C          33.0220    2.0837  -11.3435 C.2       9 UNK         0.5031 
     58 O          32.8550    0.9836  -11.8769 O.2       9 UNK        -0.5390 
     59 N          34.1910    2.5177  -10.8496 N.am      10 UNK        -0.4204 
     60 CA         35.4815    1.8113  -10.8749 C.3       10 UNK         0.0237 
     61 CB         36.0185    1.7190  -12.3202 C.3       10 UNK        -0.1985 
     62 C          35.4704    0.4452  -10.1547 C.2       10 UNK         0.4970 
     63 O          36.1758   -0.4749  -10.5735 O.2       10 UNK        -0.4914 
     64 N          34.6812    0.3397   -9.0781 N.am      11 UNK        -0.4285 
     65 CA         34.5608   -0.8609   -8.2356 C.3       11 UNK         0.1007 
     66 C          35.7862   -1.1588   -7.3202 C.2       11 UNK         0.5703 
     67 N          36.7379   -0.2462   -7.1601 N.am      11 UNK        -0.7361 
     68 O          35.8824   -2.2477   -6.7588 O.2       11 UNK        -0.4986 
     69 C69        33.2241   -0.8705   -7.4487 C.3       12 UNK        -0.0947 
     70 S70        32.9903    0.5903   -6.3784 S.3       12 UNK        -0.2240 
     71 C71        31.2182    0.4571   -5.9945 C.3       12 UNK         0.0194 
     72 H72        27.7418   -6.7636    1.2326 H         1 UNK         0.0906 
     73 H73        27.0179   -5.8338    2.5461 H         1 UNK         0.0906 
     74 H74        25.9857   -6.6315    1.3572 H         1 UNK         0.0906 
     75 H75        27.1110   -3.6431    2.2039 H         1 UNK         0.3140 
     76 H76        27.3669   -1.6623    1.3784 H         1 UNK         0.1085 
     77 H77        29.0535   -2.9299   -0.2598 H         1 UNK         0.0836 
     78 H78        27.9123   -2.4892   -1.4991 H         1 UNK         0.0836 
     79 H79        31.3357   -0.0917   -0.9906 H         1 UNK         0.0731 
     80 H80        31.1199   -1.7728   -0.5879 H         1 UNK         0.0731 
     81 H81        31.2044    0.6863   -3.2836 H         1 UNK         0.1312 
     82 H82        30.5875   -2.1615   -6.4265 H         1 UNK         0.1406 
     83 H83        30.1469   -3.3587   -2.3346 H         1 UNK         0.1631 
     84 H84        29.6180   -4.9227   -4.0074 H         1 UNK         0.0717 
     85 H85        30.8673   -4.8214   -5.2236 H         1 UNK         0.0717 
     86 H86        26.5199   -4.4767   -5.1914 H         1 UNK         0.0934 
     87 H87        27.4726   -3.2665   -4.3848 H         1 UNK         0.0934 
     88 H88        26.7709   -2.8903   -7.3234 H         1 UNK         0.0739 
     89 H89        24.8147   -2.3508   -5.1512 H         1 UNK         0.3093 
     90 H90        22.3419   -1.5333   -7.5346 H         1 UNK         0.0818 
     91 H91        20.9404   -3.3058   -6.5054 H         1 UNK         0.0819 
     92 H92        22.1031   -4.0262   -7.6045 H         1 UNK         0.0819 
     93 H93        22.3754   -4.1128   -5.8699 H         1 UNK         0.0819 
     94 H94        22.1072   -1.9015   -4.7410 H         1 UNK         0.3041 
     95 H95        23.6231    1.0778   -3.6073 H         1 UNK         0.0784 
     96 H96        21.4059    1.8680   -4.4461 H         1 UNK         0.0793 
     97 H97        20.6438    0.4066   -3.8342 H         1 UNK         0.0793 
     98 H98        21.3720    1.5634   -2.7186 H         1 UNK         0.0793 
     99 H99        22.1402   -0.7151   -2.1126 H         1 UNK         0.3024 
    100 H100       23.1249   -2.0796   -0.6486 H         1 UNK         0.1171 
    101 H101       23.8786   -4.3039   -2.6360 H         1 UNK         0.0786 
    102 H102       22.2505   -3.6987   -2.3570 H         1 UNK         0.0786 
    103 H103       23.0983   -4.5454   -1.0740 H         1 UNK         0.0786 
    104 H104       25.5421   -3.6437   -0.9358 H         1 UNK         0.2977 
    105 H105       26.1871   -0.8835   -4.3916 H         1 UNK         0.3127 
    106 H106       28.5168    0.6142   -4.4923 H         1 UNK         0.0770 
    107 H107       25.8107    1.5180   -3.4030 H         1 UNK         0.0814 
    108 H108       27.3875    2.1201   -2.9215 H         1 UNK         0.0814 
    109 H109       26.9373    0.4633   -2.5516 H         1 UNK         0.0814 
    110 H110       25.6584    1.1108   -6.4833 H         1 UNK         0.2983 
    111 H111       26.3265    3.7906   -7.3384 H         1 UNK         0.0947 
    112 H112       24.5250    3.3679   -9.0209 H         1 UNK         0.0806 
    113 H113       24.0040    2.9266   -7.4043 H         1 UNK         0.0806 
    114 H114       24.4720    1.6731   -8.5521 H         1 UNK         0.0806 
    115 H115       27.8045    0.7653   -8.1422 H         1 UNK         0.3000 
    116 H116       28.3099    1.2678  -10.9368 H         1 UNK         0.0850 
    117 H117       29.8441   -0.6669  -10.7393 H         1 UNK         0.0810 
    118 H118       28.3257   -1.0306   -9.9311 H         1 UNK         0.0810 
    119 H119       29.7529   -0.6089   -8.9872 H         1 UNK         0.0810 
    120 H120       30.1675    1.9946  -11.9520 H         1 UNK         0.3040 
    121 H121       31.9962    3.7382  -10.4108 H         1 UNK         0.0766 
    122 H122       32.6937    4.4988  -12.6798 H         1 UNK         0.0812 
    123 H123       30.9524    4.6335  -12.4997 H         1 UNK         0.0812 
    124 H124       31.6447    3.3061  -13.4323 H         1 UNK         0.0812 
    125 H125       34.2123    3.4376  -10.4296 H         1 UNK         0.3205 
    126 H126       36.1770    2.4342  -10.3106 H         1 UNK         0.0754 
    127 H127       37.0357    1.3257  -12.3381 H         1 UNK         0.0769 
    128 H128       36.0451    2.6989  -12.7971 H         1 UNK         0.0769 
    129 H129       35.4049    1.0623  -12.9380 H         1 UNK         0.0769 
    130 H130       34.1362    1.1369   -8.7851 H         1 UNK         0.2981 
    131 H131       34.5141   -1.7117   -8.9182 H         1 UNK         0.0541 
    132 H132       37.5280   -0.4553   -6.5707 H         1 UNK         0.3459 
    133 H133       36.6663    0.6515   -7.6102 H         1 UNK         0.3459 
    134 H134       33.1404   -1.7721   -6.8395 H         1 UNK         0.0612 
    135 H135       32.3941   -0.9106   -8.1560 H         1 UNK         0.0612 
    136 H136       30.8680    1.4201   -5.6199 H         1 UNK         0.0624 
    137 H137       30.6519    0.2703   -6.9075 H         1 UNK         0.0624 
@<TRIPOS>BOND
     1    1    2 1    
     2    1   72 1    
     3    1   73 1    
     4    1   74 1    
     5    2    3 2    
     6    2    4 am   BACKBONE|DICT|INTERRES
     7    4    5 1    
     8    4   75 1    
     9    5    6 1    
    10    5   35 1    
    11    5   76 1    
    12    6    7 1    
    13    6   77 1    
    14    6   78 1    
    15    7    8 1    
    16    8    9 1    
    17    8   79 1    
    18    8   80 1    
    19    9   10 ar   
    20    9   14 ar   
    21   10   11 ar   
    22   10   81 1    
    23   11   12 ar   
    24   11   71 1    
    25   12   13 ar   
    26   12   82 1    
    27   13   14 ar   
    28   13   15 1    
    29   14   83 1    
    30   15   16 1    
    31   15   84 1    
    32   15   85 1    
    33   16   17 1    
    34   17   18 1    
    35   17   86 1    
    36   17   87 1    
    37   18   19 1    
    38   18   37 1    
    39   18   88 1    
    40   19   20 am   BACKBONE|DICT|INTERRES
    41   19   89 1    
    42   20   21 2    
    43   20   22 1    
    44   22   23 1    
    45   22   24 1    
    46   22   90 1    
    47   23   91 1    
    48   23   92 1    
    49   23   93 1    
    50   24   25 am   BACKBONE|DICT|INTERRES
    51   24   94 1    
    52   25   26 2    
    53   25   27 1    
    54   27   28 1    
    55   27   29 1    
    56   27   95 1    
    57   28   96 1    
    58   28   97 1    
    59   28   98 1    
    60   29   30 am   BACKBONE|DICT|INTERRES
    61   29   99 1    
    62   30   31 2    
    63   30   32 1    
    64   32   33 1    
    65   32   34 1    
    66   32  100 1    
    67   33  101 1    
    68   33  102 1    
    69   33  103 1    
    70   34   35 am   BACKBONE|DICT|INTERRES
    71   34  104 1    
    72   35   36 2    
    73   37   38 2    
    74   37   39 am   BACKBONE|DICT|INTERRES
    75   39   40 1    
    76   39  105 1    
    77   40   41 1    
    78   40   42 1    
    79   40  106 1    
    80   41  107 1    
    81   41  108 1    
    82   41  109 1    
    83   42   43 2    
    84   42   44 am   BACKBONE|DICT|INTERRES
    85   44   45 1    
    86   44  110 1    
    87   45   46 1    
    88   45   47 1    
    89   45  111 1    
    90   46  112 1    
    91   46  113 1    
    92   46  114 1    
    93   47   48 2    
    94   47   49 am   BACKBONE|DICT|INTERRES
    95   49   50 1    
    96   49  115 1    
    97   50   51 1    
    98   50   52 1    
    99   50  116 1    
   100   51  117 1    
   101   51  118 1    
   102   51  119 1    
   103   52   53 2    
   104   52   54 am   BACKBONE|DICT|INTERRES
   105   54   55 1    
   106   54  120 1    
   107   55   56 1    
   108   55   57 1    
   109   55  121 1    
   110   56  122 1    
   111   56  123 1    
   112   56  124 1    
   113   57   58 2    
   114   57   59 am   BACKBONE|DICT|INTERRES
   115   59   60 1    
   116   59  125 1    
   117   60   61 1    
   118   60   62 1    
   119   60  126 1    
   120   61  127 1    
   121   61  128 1    
   122   61  129 1    
   123   62   63 2    
   124   62   64 am   BACKBONE|DICT|INTERRES
   125   64   65 1    
   126   64  130 1    
   127   65   66 1    
   128   65   69 1    
   129   65  131 1    
   130   66   67 am   BACKBONE|DICT|INTERRES
   131   66   68 2    
   132   67  132 1    
   133   67  133 1    
   134   69   70 1    
   135   69  134 1    
   136   69  135 1    
   137   70   71 1    
   138   71  136 1    
   139   71  137 1    
@<TRIPOS>SUBSTRUCTURE
     1 UNK         1 GROUP             0       ****    0 ROOT    
