@<TRIPOS>MOLECULE
3R137
137   139    1
SMALL
USER_CHARGES


@<TRIPOS>ATOM
      1 CA         26.0275   -5.6121   -1.2909 C.3       0 UNK        -0.2020 
      2 C          27.0675   -4.8950   -0.4330 C.2       0 UNK         0.4855 
      3 O          27.2639   -5.2944    0.7131 O.2       0 UNK        -0.5197 
      4 N          27.7719   -3.8555   -0.9081 N.am      1 UNK        -0.4892 
      5 CA         27.6877   -3.1667   -2.2060 C.3       1 UNK         0.0835 
      6 C6         28.0106   -4.0478   -3.4455 C.3       12 UNK        -0.0855 
      7 S7         29.6084   -4.9209   -3.3300 S.3       12 UNK        -0.2931 
      8 C8         30.4836   -4.3189   -4.8092 C.3       12 UNK         0.0378 
      9 C9         31.3167   -3.0805   -4.5122 C.ar      12 UNK        -0.0802 
     10 C10        32.6434   -3.2266   -4.0940 C.ar      12 UNK        -0.0944 
     11 C11        33.4452   -2.1049   -3.8716 C.ar      12 UNK        -0.0787 
     12 C12        32.8939   -0.8301   -4.0181 C.ar      12 UNK        -0.0862 
     13 C13        31.5840   -0.6661   -4.4716 C.ar      12 UNK        -0.0733 
     14 C14        30.7989   -1.7975   -4.7244 C.ar      12 UNK        -0.0832 
     15 C15        31.0685    0.7381   -4.7586 C.3       12 UNK         0.0240 
     16 S16        29.9722    1.3848   -3.4500 S.3       12 UNK        -0.2522 
     17 C17        28.3938    0.4964   -3.6929 C.3       12 UNK        -0.0967 
     18 CA         27.7825    0.6153   -5.1097 C.3       5 UNK         0.0660 
     19 N          26.7170   -0.3605   -5.3429 N.am      5 UNK        -0.4015 
     20 C          26.3074   -0.7308   -6.5645 C.2       4 UNK         0.4946 
     21 O          26.8397   -0.3419   -7.6030 O.2       4 UNK        -0.5353 
     22 CA         25.0756   -1.6448   -6.6485 C.3       4 UNK         0.0277 
     23 CB         25.4855   -3.1258   -6.6577 C.3       4 UNK        -0.1981 
     24 N          24.1280   -1.3820   -5.5617 N.am      4 UNK        -0.4209 
     25 C          23.3413   -0.2955   -5.5237 C.2       3 UNK         0.4942 
     26 O          23.2960    0.5365   -6.4290 O.2       3 UNK        -0.5208 
     27 CA         22.4909   -0.0643   -4.2616 C.3       3 UNK         0.0250 
     28 CB         21.0989   -0.6925   -4.4324 C.3       3 UNK        -0.1990 
     29 N          23.0988   -0.5594   -3.0237 N.am      3 UNK        -0.4232 
     30 C          24.2688   -0.1518   -2.5113 C.2       2 UNK         0.4993 
     31 O          24.9863    0.6960   -3.0455 O.2       2 UNK        -0.5286 
     32 CA         24.7526   -0.8377   -1.2144 C.3       2 UNK         0.0209 
     33 CB         23.7122   -1.7934   -0.5856 C.3       2 UNK        -0.1931 
     34 N          26.0285   -1.5527   -1.3780 N.am      2 UNK        -0.4546 
     35 C          26.3465   -2.4175   -2.3538 C.2       1 UNK         0.5154 
     36 O          25.6142   -2.6604   -3.3146 O.2       1 UNK        -0.5181 
     37 C          27.3172    2.0436   -5.4520 C.2       5 UNK         0.5014 
     38 O          28.0799    2.7900   -6.0648 O.2       5 UNK        -0.5248 
     39 N          26.0551    2.3767   -5.1402 N.am      6 UNK        -0.4434 
     40 CA         25.3947    3.6118   -5.5826 C.3       6 UNK         0.0363 
     41 CB         24.0107    3.7255   -4.9254 C.3       6 UNK        -0.1936 
     42 C          25.2850    3.7229   -7.1180 C.2       6 UNK         0.5081 
     43 O          25.3860    4.8265   -7.6534 O.2       6 UNK        -0.5248 
     44 N          25.1335    2.5781   -7.7991 N.am      7 UNK        -0.4718 
     45 CA         25.1856    2.4421   -9.2588 C.3       7 UNK         0.0273 
     46 CB         24.3877    1.1928   -9.6700 C.3       7 UNK        -0.1935 
     47 C          26.6206    2.3913   -9.8305 C.2       7 UNK         0.5018 
     48 O          26.7658    2.2853  -11.0492 O.2       7 UNK        -0.5186 
     49 N          27.6431    2.4729   -8.9649 N.am      8 UNK        -0.4240 
     50 CA         29.0799    2.4808   -9.2609 C.3       8 UNK         0.0235 
     51 CB         29.4690    3.7269  -10.0863 C.3       8 UNK        -0.2000 
     52 C          29.6077    1.1633   -9.8616 C.2       8 UNK         0.4941 
     53 O          30.4889    1.1978  -10.7240 O.2       8 UNK        -0.5273 
     54 N          29.0896    0.0214   -9.3872 N.am      9 UNK        -0.4262 
     55 CA         29.6214   -1.3081   -9.6999 C.3       9 UNK         0.0264 
     56 CB         28.5897   -2.3737   -9.2924 C.3       9 UNK        -0.1955 
     57 C          30.9606   -1.5720   -8.9855 C.2       9 UNK         0.5031 
     58 O          31.2563   -0.9341   -7.9704 O.2       9 UNK        -0.5390 
     59 N          31.7154   -2.5485   -9.5121 N.am      10 UNK        -0.4204 
     60 CA         32.9790   -3.0811   -8.9864 C.3       10 UNK         0.0237 
     61 CB         32.7141   -3.9525   -7.7428 C.3       10 UNK        -0.1985 
     62 C          34.0345   -1.9811   -8.7672 C.2       10 UNK         0.4970 
     63 O          34.5437   -1.4536   -9.7577 O.2       10 UNK        -0.4914 
     64 N          34.3504   -1.6587   -7.5041 N.am      11 UNK        -0.4285 
     65 CA         35.3091   -0.6024   -7.1397 C.3       11 UNK         0.1007 
     66 C          34.7951    0.8432   -7.4138 C.2       11 UNK         0.5703 
     67 N          33.5069    1.0611   -7.6597 N.am      11 UNK        -0.7361 
     68 O          35.5850    1.7844   -7.4032 O.2       11 UNK        -0.4986 
     69 C69        35.8741   -0.7206   -5.6893 C.3       12 UNK        -0.0947 
     70 S70        35.9712   -2.4095   -4.9899 S.3       12 UNK        -0.2240 
     71 C71        34.9136   -2.2695   -3.5060 C.3       12 UNK         0.0194 
     72 H72        25.3747   -6.2159   -0.6607 H         1 UNK         0.0906 
     73 H73        25.3890   -4.9277   -1.8441 H         1 UNK         0.0906 
     74 H74        26.5176   -6.2858   -1.9927 H         1 UNK         0.0906 
     75 H75        28.4598   -3.4579   -0.2834 H         1 UNK         0.3140 
     76 H76        28.4590   -2.3974   -2.1634 H         1 UNK         0.1085 
     77 H77        27.2328   -4.7905   -3.6224 H         1 UNK         0.0836 
     78 H78        28.0156   -3.4216   -4.3389 H         1 UNK         0.0836 
     79 H79        29.7835   -4.1288   -5.6241 H         1 UNK         0.0731 
     80 H80        31.1364   -5.1169   -5.1667 H         1 UNK         0.0731 
     81 H81        33.0618   -4.2164   -3.9704 H         1 UNK         0.1312 
     82 H82        33.4978    0.0439   -3.8210 H         1 UNK         0.1406 
     83 H83        29.7969   -1.6821   -5.1107 H         1 UNK         0.1631 
     84 H84        30.6068    0.7780   -5.7430 H         1 UNK         0.0717 
     85 H85        31.9135    1.4243   -4.8344 H         1 UNK         0.0717 
     86 H86        28.5795   -0.5485   -3.4584 H         1 UNK         0.0934 
     87 H87        27.6859    0.8458   -2.9390 H         1 UNK         0.0934 
     88 H88        28.5535    0.3636   -5.8350 H         1 UNK         0.0739 
     89 H89        26.1870   -0.6711   -4.5392 H         1 UNK         0.3093 
     90 H90        24.5755   -1.4367   -7.5967 H         1 UNK         0.0818 
     91 H91        24.6155   -3.7763   -6.7473 H         1 UNK         0.0819 
     92 H92        26.1377   -3.3416   -7.5049 H         1 UNK         0.0819 
     93 H93        26.0235   -3.4106   -5.7551 H         1 UNK         0.0819 
     94 H94        24.1716   -1.9965   -4.7559 H         1 UNK         0.3041 
     95 H95        22.3640    1.0142   -4.1497 H         1 UNK         0.0784 
     96 H96        20.6113   -0.3203   -5.3348 H         1 UNK         0.0793 
     97 H97        21.1527   -1.7788   -4.5157 H         1 UNK         0.0793 
     98 H98        20.4474   -0.4506   -3.5924 H         1 UNK         0.0793 
     99 H99        22.5931   -1.2810   -2.5308 H         1 UNK         0.3024 
    100 H100       24.9329   -0.0287   -0.5043 H         1 UNK         0.1171 
    101 H101       24.0695   -2.1811    0.3687 H         1 UNK         0.0786 
    102 H102       22.7700   -1.2822   -0.3823 H         1 UNK         0.0786 
    103 H103       23.5017   -2.6519   -1.2249 H         1 UNK         0.0786 
    104 H104       26.7011   -1.4096   -0.6373 H         1 UNK         0.2977 
    105 H105       25.5136    1.7399   -4.5601 H         1 UNK         0.3127 
    106 H106       26.0045    4.4487   -5.2358 H         1 UNK         0.0770 
    107 H107       23.3326    2.9475   -5.2744 H         1 UNK         0.0814 
    108 H108       23.5488    4.6852   -5.1605 H         1 UNK         0.0814 
    109 H109       24.0766    3.6534   -3.8396 H         1 UNK         0.0814 
    110 H110       24.9855    1.7243   -7.2746 H         1 UNK         0.2983 
    111 H111       24.6987    3.3127   -9.7035 H         1 UNK         0.0947 
    112 H112       24.8624    0.2778   -9.3168 H         1 UNK         0.0806 
    113 H113       24.3089    1.1181  -10.7553 H         1 UNK         0.0806 
    114 H114       23.3726    1.2194   -9.2732 H         1 UNK         0.0806 
    115 H115       27.4203    2.5454   -7.9783 H         1 UNK         0.3000 
    116 H116       29.5779    2.5718   -8.2946 H         1 UNK         0.0850 
    117 H117       29.1083    4.6419   -9.6165 H         1 UNK         0.0810 
    118 H118       29.0651    3.6857  -11.0982 H         1 UNK         0.0810 
    119 H119       30.5526    3.8151  -10.1735 H         1 UNK         0.0810 
    120 H120       28.3468    0.0568   -8.6923 H         1 UNK         0.3040 
    121 H121       29.7796   -1.3682  -10.7788 H         1 UNK         0.0766 
    122 H122       28.8965   -3.3668   -9.6223 H         1 UNK         0.0812 
    123 H123       27.6130   -2.1730   -9.7333 H         1 UNK         0.0812 
    124 H124       28.4666   -2.4167   -8.2096 H         1 UNK         0.0812 
    125 H125       31.3931   -2.9808  -10.3669 H         1 UNK         0.3205 
    126 H126       33.3851   -3.7354   -9.7594 H         1 UNK         0.0754 
    127 H127       33.6389   -4.3616   -7.3332 H         1 UNK         0.0769 
    128 H128       32.0672   -4.7960   -7.9839 H         1 UNK         0.0769 
    129 H129       32.2253   -3.3775   -6.9614 H         1 UNK         0.0769 
    130 H130       33.8703   -2.1090   -6.7386 H         1 UNK         0.2981 
    131 H131       36.1633   -0.7364   -7.8064 H         1 UNK         0.0541 
    132 H132       33.1963    2.0007   -7.8429 H         1 UNK         0.3459 
    133 H133       32.8427    0.2934   -7.6874 H         1 UNK         0.3459 
    134 H134       36.8850   -0.3102   -5.6721 H         1 UNK         0.0612 
    135 H135       35.3187   -0.0875   -5.0009 H         1 UNK         0.0612 
    136 H136       35.2530   -1.4333   -2.8926 H         1 UNK         0.0624 
    137 H137       35.0432   -3.1655   -2.8973 H         1 UNK         0.0624 
@<TRIPOS>BOND
     1    1    2 1    
     2    1   72 1    
     3    1   73 1    
     4    1   74 1    
     5    2    3 2    
     6    2    4 am   BACKBONE|DICT|INTERRES
     7    4    5 1    
     8    4   75 1    
     9    5    6 1    
    10    5   35 1    
    11    5   76 1    
    12    6    7 1    
    13    6   77 1    
    14    6   78 1    
    15    7    8 1    
    16    8    9 1    
    17    8   79 1    
    18    8   80 1    
    19    9   10 ar   
    20    9   14 ar   
    21   10   11 ar   
    22   10   81 1    
    23   11   12 ar   
    24   11   71 1    
    25   12   13 ar   
    26   12   82 1    
    27   13   14 ar   
    28   13   15 1    
    29   14   83 1    
    30   15   16 1    
    31   15   84 1    
    32   15   85 1    
    33   16   17 1    
    34   17   18 1    
    35   17   86 1    
    36   17   87 1    
    37   18   19 1    
    38   18   37 1    
    39   18   88 1    
    40   19   20 am   BACKBONE|DICT|INTERRES
    41   19   89 1    
    42   20   21 2    
    43   20   22 1    
    44   22   23 1    
    45   22   24 1    
    46   22   90 1    
    47   23   91 1    
    48   23   92 1    
    49   23   93 1    
    50   24   25 am   BACKBONE|DICT|INTERRES
    51   24   94 1    
    52   25   26 2    
    53   25   27 1    
    54   27   28 1    
    55   27   29 1    
    56   27   95 1    
    57   28   96 1    
    58   28   97 1    
    59   28   98 1    
    60   29   30 am   BACKBONE|DICT|INTERRES
    61   29   99 1    
    62   30   31 2    
    63   30   32 1    
    64   32   33 1    
    65   32   34 1    
    66   32  100 1    
    67   33  101 1    
    68   33  102 1    
    69   33  103 1    
    70   34   35 am   BACKBONE|DICT|INTERRES
    71   34  104 1    
    72   35   36 2    
    73   37   38 2    
    74   37   39 am   BACKBONE|DICT|INTERRES
    75   39   40 1    
    76   39  105 1    
    77   40   41 1    
    78   40   42 1    
    79   40  106 1    
    80   41  107 1    
    81   41  108 1    
    82   41  109 1    
    83   42   43 2    
    84   42   44 am   BACKBONE|DICT|INTERRES
    85   44   45 1    
    86   44  110 1    
    87   45   46 1    
    88   45   47 1    
    89   45  111 1    
    90   46  112 1    
    91   46  113 1    
    92   46  114 1    
    93   47   48 2    
    94   47   49 am   BACKBONE|DICT|INTERRES
    95   49   50 1    
    96   49  115 1    
    97   50   51 1    
    98   50   52 1    
    99   50  116 1    
   100   51  117 1    
   101   51  118 1    
   102   51  119 1    
   103   52   53 2    
   104   52   54 am   BACKBONE|DICT|INTERRES
   105   54   55 1    
   106   54  120 1    
   107   55   56 1    
   108   55   57 1    
   109   55  121 1    
   110   56  122 1    
   111   56  123 1    
   112   56  124 1    
   113   57   58 2    
   114   57   59 am   BACKBONE|DICT|INTERRES
   115   59   60 1    
   116   59  125 1    
   117   60   61 1    
   118   60   62 1    
   119   60  126 1    
   120   61  127 1    
   121   61  128 1    
   122   61  129 1    
   123   62   63 2    
   124   62   64 am   BACKBONE|DICT|INTERRES
   125   64   65 1    
   126   64  130 1    
   127   65   66 1    
   128   65   69 1    
   129   65  131 1    
   130   66   67 am   BACKBONE|DICT|INTERRES
   131   66   68 2    
   132   67  132 1    
   133   67  133 1    
   134   69   70 1    
   135   69  134 1    
   136   69  135 1    
   137   70   71 1    
   138   71  136 1    
   139   71  137 1    
@<TRIPOS>SUBSTRUCTURE
     1 UNK         1 GROUP             0       ****    0 ROOT    
