@<TRIPOS>MOLECULE
3R137
137   139    1
SMALL
USER_CHARGES


@<TRIPOS>ATOM
      1 CA         24.8559   -6.3488   -3.9837 C.3       0 UNK        -0.2020 
      2 C          25.2432   -5.3365   -2.9163 C.2       0 UNK         0.4855 
      3 O          24.3855   -4.5937   -2.4366 O.2       0 UNK        -0.5197 
      4 N          26.5306   -5.3065   -2.5448 N.am      1 UNK        -0.4892 
      5 CA         27.1285   -4.4137   -1.5443 C.3       1 UNK         0.0835 
      6 C6         28.6331   -4.7349   -1.3661 C.3       12 UNK        -0.0855 
      7 S7         29.3712   -3.9404    0.1037 S.3       12 UNK        -0.2931 
      8 C8         31.1218   -3.7829   -0.3922 C.3       12 UNK         0.0378 
      9 C9         31.2979   -2.9077   -1.6263 C.ar      12 UNK        -0.0802 
     10 C10        31.7764   -3.4549   -2.8207 C.ar      12 UNK        -0.0944 
     11 C11        31.8912   -2.6628   -3.9666 C.ar      12 UNK        -0.0787 
     12 C12        31.5171   -1.3160   -3.9174 C.ar      12 UNK        -0.0862 
     13 C13        31.0468   -0.7554   -2.7261 C.ar      12 UNK        -0.0733 
     14 C14        30.9593   -1.5532   -1.5801 C.ar      12 UNK        -0.0832 
     15 C15        30.6029    0.6999   -2.6788 C.3       12 UNK         0.0240 
     16 S16        28.8595    0.8078   -2.1723 S.3       12 UNK        -0.2522 
     17 C17        28.1721    2.1089   -3.2439 C.3       12 UNK        -0.0967 
     18 CA         28.1146    1.7642   -4.7579 C.3       5 UNK         0.0660 
     19 N          27.7805    0.3651   -5.0456 N.am      5 UNK        -0.4015 
     20 C          27.8095   -0.1901   -6.2667 C.2       4 UNK         0.4946 
     21 O          28.1605    0.4070   -7.2855 O.2       4 UNK        -0.5353 
     22 CA         27.3101   -1.6362   -6.3843 C.3       4 UNK         0.0277 
     23 CB         28.4385   -2.6295   -6.0614 C.3       4 UNK        -0.1981 
     24 N          26.1472   -1.8758   -5.5245 N.am      4 UNK        -0.4209 
     25 C          24.9329   -1.3509   -5.7601 C.2       3 UNK         0.4942 
     26 O          24.6707   -0.6676   -6.7481 O.2       3 UNK        -0.5208 
     27 CA         23.8328   -1.5697   -4.7077 C.3       3 UNK         0.0250 
     28 CB         23.0212   -2.8335   -5.0268 C.3       3 UNK        -0.1990 
     29 N          24.3503   -1.6358   -3.3403 N.am      3 UNK        -0.4232 
     30 C          24.9523   -0.6095   -2.7191 C.2       2 UNK         0.4993 
     31 O          25.0765    0.5098   -3.2201 O.2       2 UNK        -0.5286 
     32 CA         25.5598   -0.8835   -1.3307 C.3       2 UNK         0.0209 
     33 CB         24.5573   -0.5089   -0.2281 C.3       2 UNK        -0.1931 
     34 N          26.0158   -2.2640   -1.1232 N.am      2 UNK        -0.4546 
     35 C          26.8769   -2.9331   -1.9057 C.2       1 UNK         0.5154 
     36 O          27.3965   -2.4569   -2.9166 O.2       1 UNK        -0.5181 
     37 C          27.1546    2.7316   -5.4779 C.2       5 UNK         0.5014 
     38 O          27.6018    3.7414   -6.0209 O.2       5 UNK        -0.5248 
     39 N          25.8571    2.3954   -5.4660 N.am      6 UNK        -0.4434 
     40 CA         24.7998    3.1471   -6.1362 C.3       6 UNK         0.0363 
     41 CB         23.4313    2.6852   -5.6081 C.3       6 UNK        -0.1936 
     42 C          24.8619    3.0344   -7.6691 C.2       6 UNK         0.5081 
     43 O          24.8114    4.0604   -8.3483 O.2       6 UNK        -0.5248 
     44 N          24.9263    1.8006   -8.1893 N.am      7 UNK        -0.4718 
     45 CA         24.8031    1.5197   -9.6214 C.3       7 UNK         0.0273 
     46 CB         24.3366    0.0691   -9.8279 C.3       7 UNK        -0.1935 
     47 C          26.0871    1.7825  -10.4200 C.2       7 UNK         0.5018 
     48 O          26.0046    2.3703  -11.4998 O.2       7 UNK        -0.5186 
     49 N          27.2320    1.3108   -9.9101 N.am      8 UNK        -0.4240 
     50 CA         28.5097    1.3187  -10.6282 C.3       8 UNK         0.0235 
     51 CB         29.0963   -0.1034  -10.6269 C.3       8 UNK        -0.2000 
     52 C          29.5143    2.3092  -10.0287 C.2       8 UNK         0.4941 
     53 O          30.2742    2.9139  -10.7856 O.2       8 UNK        -0.5273 
     54 N          29.5226    2.4348   -8.6927 N.am      9 UNK        -0.4262 
     55 CA         30.4630    3.2230   -7.8809 C.3       9 UNK         0.0264 
     56 CB         30.3531    4.7308   -8.1928 C.3       9 UNK        -0.1955 
     57 C          31.9153    2.7023   -7.9367 C.2       9 UNK         0.5031 
     58 O          32.8446    3.4432   -7.6106 O.2       9 UNK        -0.5390 
     59 N          32.0834    1.4333   -8.3227 N.am      10 UNK        -0.4204 
     60 CA         33.3383    0.7021   -8.4446 C.3       10 UNK         0.0237 
     61 CB         34.1101    1.1649   -9.6956 C.3       10 UNK        -0.1985 
     62 C          32.9934   -0.7884   -8.5338 C.2       10 UNK         0.4970 
     63 O          31.8573   -1.1286   -8.8753 O.2       10 UNK        -0.4914 
     64 N          33.9740   -1.6439   -8.2317 N.am      11 UNK        -0.4285 
     65 CA         33.8264   -3.1100   -8.2387 C.3       11 UNK         0.1007 
     66 C          34.2179   -3.7809   -9.5871 C.2       11 UNK         0.5703 
     67 N          34.6536   -3.0400  -10.5995 N.am      11 UNK        -0.7361 
     68 O          34.1112   -4.9975   -9.7234 O.2       11 UNK        -0.4986 
     69 C69        34.5543   -3.7723   -7.0357 C.3       12 UNK        -0.0947 
     70 S70        34.2014   -2.9953   -5.4208 S.3       12 UNK        -0.2240 
     71 C71        32.4098   -3.2627   -5.2619 C.3       12 UNK         0.0194 
     72 H72        24.7595   -5.8605   -4.9526 H         1 UNK         0.0906 
     73 H73        25.5966   -7.1430   -4.0747 H         1 UNK         0.0906 
     74 H74        23.8998   -6.8096   -3.7368 H         1 UNK         0.0906 
     75 H75        27.1793   -5.9297   -3.0044 H         1 UNK         0.3140 
     76 H76        26.6276   -4.6281   -0.5978 H         1 UNK         0.1085 
     77 H77        29.1828   -4.4592   -2.2672 H         1 UNK         0.0836 
     78 H78        28.7734   -5.8108   -1.2492 H         1 UNK         0.0836 
     79 H79        31.5344   -4.7792   -0.5587 H         1 UNK         0.0731 
     80 H80        31.6870   -3.3512    0.4350 H         1 UNK         0.0731 
     81 H81        32.0503   -4.5003   -2.8636 H         1 UNK         0.1312 
     82 H82        31.5911   -0.7082   -4.8089 H         1 UNK         0.1406 
     83 H83        30.5813   -1.1291   -0.6596 H         1 UNK         0.1631 
     84 H84        30.7462    1.1775   -3.6482 H         1 UNK         0.0717 
     85 H85        31.2201    1.2488   -1.9665 H         1 UNK         0.0717 
     86 H86        27.1714    2.3132   -2.8563 H         1 UNK         0.0934 
     87 H87        28.7411    3.0275   -3.0889 H         1 UNK         0.0934 
     88 H88        29.1100    1.9289   -5.1705 H         1 UNK         0.0739 
     89 H89        27.4997   -0.2000   -4.2551 H         1 UNK         0.3093 
     90 H90        27.0043   -1.7994   -7.4202 H         1 UNK         0.0818 
     91 H91        28.8460   -2.4777   -5.0614 H         1 UNK         0.0819 
     92 H92        28.0938   -3.6611   -6.1303 H         1 UNK         0.0819 
     93 H93        29.2650   -2.5150   -6.7644 H         1 UNK         0.0819 
     94 H94        26.3249   -2.3491   -4.6443 H         1 UNK         0.3041 
     95 H95        23.1560   -0.7143   -4.7597 H         1 UNK         0.0784 
     96 H96        22.5592   -2.7593   -6.0123 H         1 UNK         0.0793 
     97 H97        23.6472   -3.7247   -5.0289 H         1 UNK         0.0793 
     98 H98        22.2203   -2.9868   -4.3032 H         1 UNK         0.0793 
     99 H99        24.3087   -2.5366   -2.8734 H         1 UNK         0.3024 
    100 H100       26.4297   -0.2358   -1.2279 H         1 UNK         0.1171 
    101 H101       25.0065   -0.5896    0.7620 H         1 UNK         0.0786 
    102 H102       24.2176    0.5216   -0.3437 H         1 UNK         0.0786 
    103 H103       23.6738   -1.1482   -0.2514 H         1 UNK         0.0786 
    104 H104       25.6043   -2.7528   -0.3412 H         1 UNK         0.2977 
    105 H105       25.5747    1.5786   -4.9328 H         1 UNK         0.3127 
    106 H106       24.9208    4.2009   -5.8759 H         1 UNK         0.0770 
    107 H107       23.2509    1.6299   -5.8158 H         1 UNK         0.0814 
    108 H108       22.6229    3.2519   -6.0719 H         1 UNK         0.0814 
    109 H109       23.3531    2.8301   -4.5304 H         1 UNK         0.0814 
    110 H110       24.9367    0.9939   -7.5678 H         1 UNK         0.2983 
    111 H111       24.0275    2.1722  -10.0296 H         1 UNK         0.0947 
    112 H112       24.1890   -0.1472  -10.8869 H         1 UNK         0.0806 
    113 H113       23.3884   -0.1180   -9.3235 H         1 UNK         0.0806 
    114 H114       25.0641   -0.6488   -9.4470 H         1 UNK         0.0806 
    115 H115       27.2299    0.8852   -8.9884 H         1 UNK         0.3000 
    116 H116       28.3604    1.6085  -11.6706 H         1 UNK         0.0850 
    117 H117       30.0639   -0.1303  -11.1305 H         1 UNK         0.0810 
    118 H118       28.4407   -0.8004  -11.1488 H         1 UNK         0.0810 
    119 H119       29.2462   -0.4827   -9.6155 H         1 UNK         0.0810 
    120 H120       28.8935    1.8335   -8.1623 H         1 UNK         0.3040 
    121 H121       30.1487    3.0891   -6.8473 H         1 UNK         0.0766 
    122 H122       29.3190    5.0706   -8.1328 H         1 UNK         0.0812 
    123 H123       30.7313    4.9712   -9.1865 H         1 UNK         0.0812 
    124 H124       30.9273    5.3203   -7.4772 H         1 UNK         0.0812 
    125 H125       31.2692    0.8709   -8.5418 H         1 UNK         0.3205 
    126 H126       33.9378    0.8739   -7.5481 H         1 UNK         0.0754 
    127 H127       35.0450    0.6151   -9.8096 H         1 UNK         0.0769 
    128 H128       34.3671    2.2227   -9.6373 H         1 UNK         0.0769 
    129 H129       33.5263    1.0146  -10.6049 H         1 UNK         0.0769 
    130 H130       34.8830   -1.2916   -7.9696 H         1 UNK         0.2981 
    131 H131       32.7679   -3.3487   -8.1295 H         1 UNK         0.0541 
    132 H132       34.7340   -2.0409  -10.5058 H         1 UNK         0.3459 
    133 H133       34.8980   -3.4879  -11.4687 H         1 UNK         0.3459 
    134 H134       34.2928   -4.8297   -6.9659 H         1 UNK         0.0612 
    135 H135       35.6349   -3.7359   -7.1847 H         1 UNK         0.0612 
    136 H136       31.8881   -2.8040   -6.1023 H         1 UNK         0.0624 
    137 H137       32.1944   -4.3315   -5.3039 H         1 UNK         0.0624 
@<TRIPOS>BOND
     1    1    2 1    
     2    1   72 1    
     3    1   73 1    
     4    1   74 1    
     5    2    3 2    
     6    2    4 am   BACKBONE|DICT|INTERRES
     7    4    5 1    
     8    4   75 1    
     9    5    6 1    
    10    5   35 1    
    11    5   76 1    
    12    6    7 1    
    13    6   77 1    
    14    6   78 1    
    15    7    8 1    
    16    8    9 1    
    17    8   79 1    
    18    8   80 1    
    19    9   10 ar   
    20    9   14 ar   
    21   10   11 ar   
    22   10   81 1    
    23   11   12 ar   
    24   11   71 1    
    25   12   13 ar   
    26   12   82 1    
    27   13   14 ar   
    28   13   15 1    
    29   14   83 1    
    30   15   16 1    
    31   15   84 1    
    32   15   85 1    
    33   16   17 1    
    34   17   18 1    
    35   17   86 1    
    36   17   87 1    
    37   18   19 1    
    38   18   37 1    
    39   18   88 1    
    40   19   20 am   BACKBONE|DICT|INTERRES
    41   19   89 1    
    42   20   21 2    
    43   20   22 1    
    44   22   23 1    
    45   22   24 1    
    46   22   90 1    
    47   23   91 1    
    48   23   92 1    
    49   23   93 1    
    50   24   25 am   BACKBONE|DICT|INTERRES
    51   24   94 1    
    52   25   26 2    
    53   25   27 1    
    54   27   28 1    
    55   27   29 1    
    56   27   95 1    
    57   28   96 1    
    58   28   97 1    
    59   28   98 1    
    60   29   30 am   BACKBONE|DICT|INTERRES
    61   29   99 1    
    62   30   31 2    
    63   30   32 1    
    64   32   33 1    
    65   32   34 1    
    66   32  100 1    
    67   33  101 1    
    68   33  102 1    
    69   33  103 1    
    70   34   35 am   BACKBONE|DICT|INTERRES
    71   34  104 1    
    72   35   36 2    
    73   37   38 2    
    74   37   39 am   BACKBONE|DICT|INTERRES
    75   39   40 1    
    76   39  105 1    
    77   40   41 1    
    78   40   42 1    
    79   40  106 1    
    80   41  107 1    
    81   41  108 1    
    82   41  109 1    
    83   42   43 2    
    84   42   44 am   BACKBONE|DICT|INTERRES
    85   44   45 1    
    86   44  110 1    
    87   45   46 1    
    88   45   47 1    
    89   45  111 1    
    90   46  112 1    
    91   46  113 1    
    92   46  114 1    
    93   47   48 2    
    94   47   49 am   BACKBONE|DICT|INTERRES
    95   49   50 1    
    96   49  115 1    
    97   50   51 1    
    98   50   52 1    
    99   50  116 1    
   100   51  117 1    
   101   51  118 1    
   102   51  119 1    
   103   52   53 2    
   104   52   54 am   BACKBONE|DICT|INTERRES
   105   54   55 1    
   106   54  120 1    
   107   55   56 1    
   108   55   57 1    
   109   55  121 1    
   110   56  122 1    
   111   56  123 1    
   112   56  124 1    
   113   57   58 2    
   114   57   59 am   BACKBONE|DICT|INTERRES
   115   59   60 1    
   116   59  125 1    
   117   60   61 1    
   118   60   62 1    
   119   60  126 1    
   120   61  127 1    
   121   61  128 1    
   122   61  129 1    
   123   62   63 2    
   124   62   64 am   BACKBONE|DICT|INTERRES
   125   64   65 1    
   126   64  130 1    
   127   65   66 1    
   128   65   69 1    
   129   65  131 1    
   130   66   67 am   BACKBONE|DICT|INTERRES
   131   66   68 2    
   132   67  132 1    
   133   67  133 1    
   134   69   70 1    
   135   69  134 1    
   136   69  135 1    
   137   70   71 1    
   138   71  136 1    
   139   71  137 1    
@<TRIPOS>SUBSTRUCTURE
     1 UNK         1 GROUP             0       ****    0 ROOT    
