@<TRIPOS>MOLECULE
3R137
137   139    1
SMALL
USER_CHARGES


@<TRIPOS>ATOM
      1 CA         29.3540   -4.8530   -2.7444 C.3       0 UNK        -0.2020 
      2 C          28.8681   -3.9105   -1.6545 C.2       0 UNK         0.4855 
      3 O          28.3460   -4.3703   -0.6388 O.2       0 UNK        -0.5197 
      4 N          29.0337   -2.5966   -1.8547 N.am      1 UNK        -0.4892 
      5 CA         28.6571   -1.5527   -0.8900 C.3       1 UNK         0.0835 
      6 C6         29.4852   -0.2534   -1.0764 C.3       12 UNK        -0.0855 
      7 S7         31.2350   -0.4814   -0.5942 S.3       12 UNK        -0.2931 
      8 C8         32.1519   -0.0524   -2.1086 C.3       12 UNK         0.0378 
      9 C9         32.0271   -1.1421   -3.1604 C.ar      12 UNK        -0.0802 
     10 C10        32.8617   -2.2632   -3.1204 C.ar      12 UNK        -0.0944 
     11 C11        32.7196   -3.2854   -4.0635 C.ar      12 UNK        -0.0787 
     12 C12        31.7235   -3.1861   -5.0384 C.ar      12 UNK        -0.0862 
     13 C13        30.9003   -2.0599   -5.1004 C.ar      12 UNK        -0.0733 
     14 C14        31.0674   -1.0340   -4.1676 C.ar      12 UNK        -0.0832 
     15 C15        29.8311   -1.9631   -6.1738 C.3       12 UNK         0.0240 
     16 S16        28.1904   -2.3822   -5.5128 S.3       12 UNK        -0.2522 
     17 C17        27.5479   -0.7288   -5.0912 C.3       12 UNK        -0.0967 
     18 CA         26.7676   -0.1057   -6.2686 C.3       5 UNK         0.0660 
     19 N          25.6249   -0.9284   -6.6738 N.am      5 UNK        -0.4015 
     20 C          24.8963   -0.7533   -7.7859 C.2       4 UNK         0.4946 
     21 O          25.1294    0.1195   -8.6240 O.2       4 UNK        -0.5353 
     22 CA         23.6601   -1.6513   -7.9692 C.3       4 UNK         0.0277 
     23 CB         23.9887   -2.8190   -8.9124 C.3       4 UNK        -0.1981 
     24 N          23.0997   -2.1775   -6.7180 N.am      4 UNK        -0.4209 
     25 C          22.6850   -1.4435   -5.6743 C.2       3 UNK         0.4942 
     26 O          22.7335   -0.2121   -5.6441 O.2       3 UNK        -0.5208 
     27 CA         22.1630   -2.1967   -4.4368 C.3       3 UNK         0.0250 
     28 CB         22.0138   -3.7240   -4.6329 C.3       3 UNK        -0.1990 
     29 N          22.9751   -1.9081   -3.2483 N.am      3 UNK        -0.4232 
     30 C          24.2894   -2.1293   -3.0920 C.2       2 UNK         0.4993 
     31 O          25.0218   -2.6031   -3.9645 O.2       2 UNK        -0.5286 
     32 CA         24.8674   -1.7812   -1.7135 C.3       2 UNK         0.0209 
     33 CB         24.3029   -2.7225   -0.6284 C.3       2 UNK        -0.1931 
     34 N          26.3299   -1.8711   -1.7245 N.am      2 UNK        -0.4546 
     35 C          27.1363   -1.2647   -0.8412 C.2       1 UNK         0.5154 
     36 O          26.7114   -0.5003    0.0274 O.2       1 UNK        -0.5181 
     37 C          26.4061    1.3640   -5.9653 C.2       5 UNK         0.5014 
     38 O          27.3180    2.1847   -5.8711 O.2       5 UNK        -0.5248 
     39 N          25.1101    1.6957   -5.8499 N.am      6 UNK        -0.4434 
     40 CA         24.6212    3.0766   -5.8218 C.3       6 UNK         0.0363 
     41 CB         23.1300    3.0796   -5.4510 C.3       6 UNK        -0.1936 
     42 C          24.8468    3.8251   -7.1524 C.2       6 UNK         0.5081 
     43 O          24.9153    5.0545   -7.1377 O.2       6 UNK        -0.5248 
     44 N          24.9602    3.0849   -8.2652 N.am      7 UNK        -0.4718 
     45 CA         25.2607    3.6098   -9.5966 C.3       7 UNK         0.0273 
     46 CB         24.1582    3.1760  -10.5781 C.3       7 UNK        -0.1935 
     47 C          26.6385    3.1244  -10.0675 C.2       7 UNK         0.5018 
     48 O          27.4892    3.9473  -10.4076 O.2       7 UNK        -0.5186 
     49 N          26.8488    1.8018  -10.0663 N.am      8 UNK        -0.4240 
     50 CA         28.0718    1.1388  -10.5222 C.3       8 UNK         0.0235 
     51 CB         27.6846   -0.1966  -11.1862 C.3       8 UNK        -0.2000 
     52 C          29.0514    0.9531   -9.3515 C.2       8 UNK         0.4941 
     53 O          29.3913   -0.1793   -9.0072 O.2       8 UNK        -0.5273 
     54 N          29.4436    2.0698   -8.7267 N.am      9 UNK        -0.4262 
     55 CA         30.2919    2.1165   -7.5345 C.3       9 UNK         0.0264 
     56 CB         30.3202    3.5591   -7.0024 C.3       9 UNK        -0.1955 
     57 C          31.7255    1.6117   -7.7820 C.2       9 UNK         0.5031 
     58 O          32.2806    1.8639   -8.8537 O.2       9 UNK        -0.5390 
     59 N          32.2922    0.9850   -6.7394 N.am      10 UNK        -0.4204 
     60 CA         33.6490    0.4431   -6.5931 C.3       10 UNK         0.0237 
     61 CB         34.7144    1.5486   -6.7359 C.3       10 UNK        -0.1985 
     62 C          33.9530   -0.7515   -7.5162 C.2       10 UNK         0.4970 
     63 O          34.0172   -0.5974   -8.7370 O.2       10 UNK        -0.4914 
     64 N          34.1918   -1.9179   -6.9048 N.am      11 UNK        -0.4285 
     65 CA         34.7446   -3.1101   -7.5640 C.3       11 UNK         0.1007 
     66 C          36.2197   -2.9216   -8.0231 C.2       11 UNK         0.5703 
     67 N          36.6597   -3.6836   -9.0158 N.am      11 UNK        -0.7361 
     68 O          36.9738   -2.1175   -7.4767 O.2       11 UNK        -0.4986 
     69 C69        34.5648   -4.3913   -6.7017 C.3       12 UNK        -0.0947 
     70 S70        35.1584   -4.2449   -4.9766 S.3       12 UNK        -0.2240 
     71 C71        33.6303   -4.5030   -4.0178 C.3       12 UNK         0.0194 
     72 H72        29.5310   -4.3304   -3.6823 H         1 UNK         0.0906 
     73 H73        30.2839   -5.3321   -2.4399 H         1 UNK         0.0906 
     74 H74        28.6126   -5.6293   -2.9310 H         1 UNK         0.0906 
     75 H75        29.4974   -2.2788   -2.6949 H         1 UNK         0.3140 
     76 H76        28.8913   -1.9345    0.1067 H         1 UNK         0.1085 
     77 H77        29.4053    0.1161   -2.0986 H         1 UNK         0.0836 
     78 H78        29.0973    0.5475   -0.4436 H         1 UNK         0.0836 
     79 H79        31.8016    0.9070   -2.4930 H         1 UNK         0.0731 
     80 H80        33.2035    0.0890   -1.8545 H         1 UNK         0.0731 
     81 H81        33.6144   -2.3447   -2.3479 H         1 UNK         0.1312 
     82 H82        31.5870   -3.9847   -5.7539 H         1 UNK         0.1406 
     83 H83        30.4415   -0.1561   -4.2056 H         1 UNK         0.1631 
     84 H84        30.0583   -2.6376   -7.0008 H         1 UNK         0.0717 
     85 H85        29.8224   -0.9610   -6.5990 H         1 UNK         0.0717 
     86 H86        28.3702   -0.0814   -4.7934 H         1 UNK         0.0934 
     87 H87        26.9091   -0.8114   -4.2131 H         1 UNK         0.0934 
     88 H88        27.4398   -0.0707   -7.1266 H         1 UNK         0.0739 
     89 H89        25.3633   -1.6636   -6.0271 H         1 UNK         0.3093 
     90 H90        22.8876   -1.0378   -8.4375 H         1 UNK         0.0818 
     91 H91        23.1006   -3.4081   -9.1417 H         1 UNK         0.0819 
     92 H92        24.3859   -2.4541   -9.8611 H         1 UNK         0.0819 
     93 H93        24.7360   -3.4874   -8.4825 H         1 UNK         0.0819 
     94 H94        23.0440   -3.1825   -6.6368 H         1 UNK         0.3041 
     95 H95        21.1689   -1.7928   -4.2389 H         1 UNK         0.0784 
     96 H96        21.3496   -3.9543   -5.4672 H         1 UNK         0.0793 
     97 H97        22.9697   -4.2156   -4.8180 H         1 UNK         0.0793 
     98 H98        21.5778   -4.1869   -3.7474 H         1 UNK         0.0793 
     99 H99        22.4718   -1.4835   -2.4816 H         1 UNK         0.3024 
    100 H100       24.5785   -0.7516   -1.4892 H         1 UNK         0.1171 
    101 H101       24.6702   -2.4562    0.3628 H         1 UNK         0.0786 
    102 H102       24.5810   -3.7603   -0.8174 H         1 UNK         0.0786 
    103 H103       23.2142   -2.6789   -0.5837 H         1 UNK         0.0786 
    104 H104       26.7218   -2.4601   -2.4490 H         1 UNK         0.2977 
    105 H105       24.4029    0.9676   -5.8927 H         1 UNK         0.3127 
    106 H106       25.1691    3.6138   -5.0446 H         1 UNK         0.0770 
    107 H107       22.5289    2.5574   -6.1966 H         1 UNK         0.0814 
    108 H108       22.7475    4.0986   -5.3784 H         1 UNK         0.0814 
    109 H109       22.9588    2.5991   -4.4876 H         1 UNK         0.0814 
    110 H110       24.9140    2.0743   -8.1833 H         1 UNK         0.2983 
    111 H111       25.2875    4.7017   -9.5835 H         1 UNK         0.0947 
    112 H112       24.3744    3.5260  -11.5885 H         1 UNK         0.0806 
    113 H113       23.1922    3.5920  -10.2916 H         1 UNK         0.0806 
    114 H114       24.0525    2.0912  -10.6222 H         1 UNK         0.0806 
    115 H115       26.1297    1.1891   -9.6842 H         1 UNK         0.3000 
    116 H116       28.5710    1.7538  -11.2742 H         1 UNK         0.0850 
    117 H117       28.5669   -0.7188  -11.5588 H         1 UNK         0.0810 
    118 H118       27.1802   -0.8638  -10.4855 H         1 UNK         0.0810 
    119 H119       27.0192   -0.0386  -12.0350 H         1 UNK         0.0810 
    120 H120       29.1172    2.9552   -9.0914 H         1 UNK         0.3040 
    121 H121       29.8220    1.4830   -6.7799 H         1 UNK         0.0766 
    122 H122       30.9102    3.6294   -6.0877 H         1 UNK         0.0812 
    123 H123       30.7585    4.2467   -7.7270 H         1 UNK         0.0812 
    124 H124       29.3169    3.9146   -6.7656 H         1 UNK         0.0812 
    125 H125       31.7156    0.8594   -5.9218 H         1 UNK         0.3205 
    126 H126       33.7049    0.0860   -5.5631 H         1 UNK         0.0754 
    127 H127       34.7312    1.9713   -7.7410 H         1 UNK         0.0769 
    128 H128       35.7115    1.1540   -6.5358 H         1 UNK         0.0769 
    129 H129       34.5393    2.3627   -6.0324 H         1 UNK         0.0769 
    130 H130       34.1374   -1.9743   -5.8980 H         1 UNK         0.2981 
    131 H131       34.1594   -3.2577   -8.4740 H         1 UNK         0.0541 
    132 H132       36.0565   -4.3529   -9.4682 H         1 UNK         0.3459 
    133 H133       37.6153   -3.5849   -9.3213 H         1 UNK         0.3459 
    134 H134       35.0764   -5.2389   -7.1612 H         1 UNK         0.0612 
    135 H135       33.5139   -4.6759   -6.6990 H         1 UNK         0.0612 
    136 H136       33.1090   -5.3885   -4.3849 H         1 UNK         0.0624 
    137 H137       33.9008   -4.7194   -2.9833 H         1 UNK         0.0624 
@<TRIPOS>BOND
     1    1    2 1    
     2    1   72 1    
     3    1   73 1    
     4    1   74 1    
     5    2    3 2    
     6    2    4 am   BACKBONE|DICT|INTERRES
     7    4    5 1    
     8    4   75 1    
     9    5    6 1    
    10    5   35 1    
    11    5   76 1    
    12    6    7 1    
    13    6   77 1    
    14    6   78 1    
    15    7    8 1    
    16    8    9 1    
    17    8   79 1    
    18    8   80 1    
    19    9   10 ar   
    20    9   14 ar   
    21   10   11 ar   
    22   10   81 1    
    23   11   12 ar   
    24   11   71 1    
    25   12   13 ar   
    26   12   82 1    
    27   13   14 ar   
    28   13   15 1    
    29   14   83 1    
    30   15   16 1    
    31   15   84 1    
    32   15   85 1    
    33   16   17 1    
    34   17   18 1    
    35   17   86 1    
    36   17   87 1    
    37   18   19 1    
    38   18   37 1    
    39   18   88 1    
    40   19   20 am   BACKBONE|DICT|INTERRES
    41   19   89 1    
    42   20   21 2    
    43   20   22 1    
    44   22   23 1    
    45   22   24 1    
    46   22   90 1    
    47   23   91 1    
    48   23   92 1    
    49   23   93 1    
    50   24   25 am   BACKBONE|DICT|INTERRES
    51   24   94 1    
    52   25   26 2    
    53   25   27 1    
    54   27   28 1    
    55   27   29 1    
    56   27   95 1    
    57   28   96 1    
    58   28   97 1    
    59   28   98 1    
    60   29   30 am   BACKBONE|DICT|INTERRES
    61   29   99 1    
    62   30   31 2    
    63   30   32 1    
    64   32   33 1    
    65   32   34 1    
    66   32  100 1    
    67   33  101 1    
    68   33  102 1    
    69   33  103 1    
    70   34   35 am   BACKBONE|DICT|INTERRES
    71   34  104 1    
    72   35   36 2    
    73   37   38 2    
    74   37   39 am   BACKBONE|DICT|INTERRES
    75   39   40 1    
    76   39  105 1    
    77   40   41 1    
    78   40   42 1    
    79   40  106 1    
    80   41  107 1    
    81   41  108 1    
    82   41  109 1    
    83   42   43 2    
    84   42   44 am   BACKBONE|DICT|INTERRES
    85   44   45 1    
    86   44  110 1    
    87   45   46 1    
    88   45   47 1    
    89   45  111 1    
    90   46  112 1    
    91   46  113 1    
    92   46  114 1    
    93   47   48 2    
    94   47   49 am   BACKBONE|DICT|INTERRES
    95   49   50 1    
    96   49  115 1    
    97   50   51 1    
    98   50   52 1    
    99   50  116 1    
   100   51  117 1    
   101   51  118 1    
   102   51  119 1    
   103   52   53 2    
   104   52   54 am   BACKBONE|DICT|INTERRES
   105   54   55 1    
   106   54  120 1    
   107   55   56 1    
   108   55   57 1    
   109   55  121 1    
   110   56  122 1    
   111   56  123 1    
   112   56  124 1    
   113   57   58 2    
   114   57   59 am   BACKBONE|DICT|INTERRES
   115   59   60 1    
   116   59  125 1    
   117   60   61 1    
   118   60   62 1    
   119   60  126 1    
   120   61  127 1    
   121   61  128 1    
   122   61  129 1    
   123   62   63 2    
   124   62   64 am   BACKBONE|DICT|INTERRES
   125   64   65 1    
   126   64  130 1    
   127   65   66 1    
   128   65   69 1    
   129   65  131 1    
   130   66   67 am   BACKBONE|DICT|INTERRES
   131   66   68 2    
   132   67  132 1    
   133   67  133 1    
   134   69   70 1    
   135   69  134 1    
   136   69  135 1    
   137   70   71 1    
   138   71  136 1    
   139   71  137 1    
@<TRIPOS>SUBSTRUCTURE
     1 UNK         1 GROUP             0       ****    0 ROOT    
