@<TRIPOS>MOLECULE
3R137
137   139    1
SMALL
USER_CHARGES


@<TRIPOS>ATOM
      1 CA         25.3363   -6.7300   -2.9698 C.3       0 UNK        -0.2020 
      2 C          26.2155   -5.5083   -2.7509 C.2       0 UNK         0.4855 
      3 O          26.6390   -4.8829   -3.7216 O.2       0 UNK        -0.5197 
      4 N          26.4778   -5.1589   -1.4834 N.am      1 UNK        -0.4892 
      5 CA         27.3145   -4.0332   -1.0432 C.3       1 UNK         0.0835 
      6 C6         28.8257   -4.2725   -1.3242 C.3       12 UNK        -0.0855 
      7 S7         29.8752   -3.5556   -0.0164 S.3       12 UNK        -0.2931 
      8 C8         31.4158   -3.1911   -0.9248 C.3       12 UNK         0.0378 
      9 C9         31.3085   -2.0041   -1.8786 C.ar      12 UNK        -0.0802 
     10 C10        31.8904   -2.0774   -3.1480 C.ar      12 UNK        -0.0944 
     11 C11        31.8399   -0.9860   -4.0282 C.ar      12 UNK        -0.0787 
     12 C12        31.1795    0.1780   -3.6224 C.ar      12 UNK        -0.0862 
     13 C13        30.5833    0.2638   -2.3632 C.ar      12 UNK        -0.0733 
     14 C14        30.6682   -0.8236   -1.4903 C.ar      12 UNK        -0.0832 
     15 C15        29.8506    1.5263   -1.9333 C.3       12 UNK         0.0240 
     16 S16        28.0753    1.2013   -1.6998 S.3       12 UNK        -0.2522 
     17 C17        27.2871    1.9941   -3.1384 C.3       12 UNK        -0.0967 
     18 CA         27.7292    1.5080   -4.5461 C.3       5 UNK         0.0660 
     19 N          27.7494    0.0497   -4.7190 N.am      5 UNK        -0.4015 
     20 C          28.2265   -0.5684   -5.8141 C.2       4 UNK         0.4946 
     21 O          28.8122    0.0154   -6.7283 O.2       4 UNK        -0.5353 
     22 CA         27.9650   -2.0778   -5.9506 C.3       4 UNK         0.0277 
     23 CB         29.0694   -2.8956   -5.2675 C.3       4 UNK        -0.1981 
     24 N          26.6538   -2.4705   -5.4321 N.am      4 UNK        -0.4209 
     25 C          25.4880   -2.0962   -5.9804 C.2       3 UNK         0.4942 
     26 O          25.3989   -1.4377   -7.0156 O.2       3 UNK        -0.5208 
     27 CA         24.2036   -2.4710   -5.2232 C.3       3 UNK         0.0250 
     28 CB         23.7549   -3.9004   -5.5659 C.3       3 UNK        -0.1990 
     29 N          24.3492   -2.3184   -3.7741 N.am      3 UNK        -0.4232 
     30 C          24.5359   -1.1422   -3.1565 C.2       2 UNK         0.4993 
     31 O          24.5437   -0.0583   -3.7394 O.2       2 UNK        -0.5286 
     32 CA         24.7967   -1.1797   -1.6415 C.3       2 UNK         0.0209 
     33 CB         23.4767   -1.0593   -0.8639 C.3       2 UNK        -0.1931 
     34 N          25.5194   -2.3782   -1.2017 N.am      2 UNK        -0.4546 
     35 C          26.7707   -2.6869   -1.5748 C.2       1 UNK         0.5154 
     36 O          27.4303   -1.9966   -2.3524 O.2       1 UNK        -0.5181 
     37 C          26.8419    2.1751   -5.6180 C.2       5 UNK         0.5014 
     38 O          27.3133    3.0668   -6.3268 O.2       5 UNK        -0.5248 
     39 N          25.5855    1.7104   -5.7260 N.am      6 UNK        -0.4434 
     40 CA         24.5526    2.2132   -6.6411 C.3       6 UNK         0.0363 
     41 CB         23.2245    1.4944   -6.3581 C.3       6 UNK        -0.1936 
     42 C          24.9105    2.1046   -8.1333 C.2       6 UNK         0.5081 
     43 O          24.4282    2.9120   -8.9270 O.2       6 UNK        -0.5248 
     44 N          25.7898    1.1584   -8.4857 N.am      7 UNK        -0.4718 
     45 CA         26.3998    0.9982   -9.8100 C.3       7 UNK         0.0273 
     46 CB         26.9478   -0.4354   -9.9217 C.3       7 UNK        -0.1935 
     47 C          27.4903    2.0468  -10.1346 C.2       7 UNK         0.5018 
     48 O          28.2344    1.8520  -11.0959 O.2       7 UNK        -0.5186 
     49 N          27.5697    3.1251   -9.3392 N.am      8 UNK        -0.4240 
     50 CA         28.5536    4.2113   -9.3648 C.3       8 UNK         0.0235 
     51 CB         28.5576    4.9565  -10.7177 C.3       8 UNK        -0.2000 
     52 C          29.9400    3.7162   -8.9230 C.2       8 UNK         0.4941 
     53 O          30.9391    4.0088   -9.5823 O.2       8 UNK        -0.5273 
     54 N          29.9527    2.9757   -7.8033 N.am      9 UNK        -0.4262 
     55 CA         31.1063    2.3258   -7.1739 C.3       9 UNK         0.0264 
     56 CB         32.0653    3.3719   -6.5684 C.3       9 UNK        -0.1955 
     57 C          31.8053    1.3387   -8.1264 C.2       9 UNK         0.5031 
     58 O          32.9738    1.5320   -8.4693 O.2       9 UNK        -0.5390 
     59 N          31.0665    0.3027   -8.5386 N.am      10 UNK        -0.4204 
     60 CA         31.5287   -0.7421   -9.4485 C.3       10 UNK         0.0237 
     61 CB         30.9435   -0.4856  -10.8484 C.3       10 UNK        -0.1985 
     62 C          31.0767   -2.1046   -8.8962 C.2       10 UNK         0.4970 
     63 O          29.8694   -2.3165   -8.8128 O.2       10 UNK        -0.4914 
     64 N          31.9626   -3.0414   -8.5227 N.am      11 UNK        -0.4285 
     65 CA         33.4397   -3.0262   -8.5370 C.3       11 UNK         0.1007 
     66 C          34.0897   -2.9493   -9.9526 C.2       11 UNK         0.5703 
     67 N          33.3688   -3.2726  -11.0192 N.am      11 UNK        -0.7361 
     68 O          35.2625   -2.6108  -10.0898 O.2       11 UNK        -0.4986 
     69 C69        34.0681   -2.0474   -7.5004 C.3       12 UNK        -0.0947 
     70 S70        33.5622   -2.4162   -5.7877 S.3       12 UNK        -0.2240 
     71 C71        32.4530   -1.0122   -5.4297 C.3       12 UNK         0.0194 
     72 H72        25.8479   -7.4477   -3.6105 H         1 UNK         0.0906 
     73 H73        25.0891   -7.2293   -2.0332 H         1 UNK         0.0906 
     74 H74        24.4057   -6.4416   -3.4574 H         1 UNK         0.0906 
     75 H75        26.0825   -5.7140   -0.7361 H         1 UNK         0.3140 
     76 H76        27.1809   -3.9968    0.0396 H         1 UNK         0.1085 
     77 H77        29.1230   -3.9056   -2.3070 H         1 UNK         0.0836 
     78 H78        29.0396   -5.3423   -1.3397 H         1 UNK         0.0836 
     79 H79        31.7267   -4.0910   -1.4580 H         1 UNK         0.0731 
     80 H80        32.2022   -2.9763   -0.2003 H         1 UNK         0.0731 
     81 H81        32.3835   -2.9932   -3.4392 H         1 UNK         0.1312 
     82 H82        31.1267    1.0243   -4.2896 H         1 UNK         0.1406 
     83 H83        30.2133   -0.7542   -0.5117 H         1 UNK         0.1631 
     84 H84        29.9976    2.3381   -2.6469 H         1 UNK         0.0717 
     85 H85        30.2696    1.8724   -0.9876 H         1 UNK         0.0717 
     86 H86        26.2128    1.8577   -3.0039 H         1 UNK         0.0934 
     87 H87        27.4543    3.0697   -3.0519 H         1 UNK         0.0934 
     88 H88        28.7495    1.8574   -4.7112 H         1 UNK         0.0739 
     89 H89        27.3603   -0.5109   -3.9685 H         1 UNK         0.3093 
     90 H90        27.9736   -2.3204   -7.0145 H         1 UNK         0.0818 
     91 H91        29.1997   -2.6002   -4.2270 H         1 UNK         0.0819 
     92 H92        28.8526   -3.9635   -5.2916 H         1 UNK         0.0819 
     93 H93        30.0248   -2.7484   -5.7703 H         1 UNK         0.0819 
     94 H94        26.6469   -3.0555   -4.6011 H         1 UNK         0.3041 
     95 H95        23.4166   -1.7875   -5.5480 H         1 UNK         0.0784 
     96 H96        23.5706   -3.9997   -6.6364 H         1 UNK         0.0793 
     97 H97        24.5093   -4.6402   -5.2999 H         1 UNK         0.0793 
     98 H98        22.8291   -4.1617   -5.0530 H         1 UNK         0.0793 
     99 H99        24.3881   -3.1624   -3.2227 H         1 UNK         0.3024 
    100 H100       25.4164   -0.3126   -1.4020 H         1 UNK         0.1171 
    101 H101       23.6533   -0.9877    0.2095 H         1 UNK         0.0786 
    102 H102       22.9310   -0.1622   -1.1606 H         1 UNK         0.0786 
    103 H103       22.8217   -1.9130   -1.0420 H         1 UNK         0.0786 
    104 H104       25.0273   -3.0086   -0.5847 H         1 UNK         0.2977 
    105 H105       25.2843    0.9824   -5.0787 H         1 UNK         0.3127 
    106 H106       24.4187    3.2739   -6.4200 H         1 UNK         0.0770 
    107 H107       23.3007    0.4242   -6.5509 H         1 UNK         0.0814 
    108 H108       22.4259    1.8840   -6.9908 H         1 UNK         0.0814 
    109 H109       22.9116    1.6280   -5.3224 H         1 UNK         0.0814 
    110 H110       26.0752    0.4919   -7.7767 H         1 UNK         0.2983 
    111 H111       25.6166    1.1195  -10.5612 H         1 UNK         0.0947 
    112 H112       27.3364   -0.6361  -10.9206 H         1 UNK         0.0806 
    113 H113       26.1710   -1.1746   -9.7258 H         1 UNK         0.0806 
    114 H114       27.7583   -0.6089   -9.2132 H         1 UNK         0.0806 
    115 H115       26.9360    3.1505   -8.5501 H         1 UNK         0.3000 
    116 H116       28.2320    4.9244   -8.6040 H         1 UNK         0.0850 
    117 H117       29.1868    5.8459  -10.6671 H         1 UNK         0.0810 
    118 H118       27.5553    5.2834  -10.9940 H         1 UNK         0.0810 
    119 H119       28.9444    4.3359  -11.5263 H         1 UNK         0.0810 
    120 H120       29.0585    2.8091   -7.3506 H         1 UNK         0.3040 
    121 H121       30.7102    1.7353   -6.3508 H         1 UNK         0.0766 
    122 H122       31.5505    4.0155   -5.8552 H         1 UNK         0.0812 
    123 H123       32.5094    4.0081   -7.3347 H         1 UNK         0.0812 
    124 H124       32.8839    2.8861   -6.0360 H         1 UNK         0.0812 
    125 H125       30.1412    0.1660   -8.1312 H         1 UNK         0.3205 
    126 H126       32.6103   -0.7022   -9.5440 H         1 UNK         0.0754 
    127 H127       31.2727   -1.2457  -11.5574 H         1 UNK         0.0769 
    128 H128       31.2615    0.4822  -11.2368 H         1 UNK         0.0769 
    129 H129       29.8533   -0.4938  -10.8405 H         1 UNK         0.0769 
    130 H130       31.5773   -3.9116   -8.1876 H         1 UNK         0.2981 
    131 H131       33.7150   -4.0273   -8.2032 H         1 UNK         0.0541 
    132 H132       32.4200   -3.5971  -10.9222 H         1 UNK         0.3459 
    133 H133       33.7964   -3.2314  -11.9311 H         1 UNK         0.3459 
    134 H134       33.8479   -1.0075   -7.7355 H         1 UNK         0.0612 
    135 H135       35.1563   -2.1264   -7.5195 H         1 UNK         0.0612 
    136 H136       31.6393   -1.0204   -6.1533 H         1 UNK         0.0624 
    137 H137       33.0112   -0.0885   -5.5898 H         1 UNK         0.0624 
@<TRIPOS>BOND
     1    1    2 1    
     2    1   72 1    
     3    1   73 1    
     4    1   74 1    
     5    2    3 2    
     6    2    4 am   BACKBONE|DICT|INTERRES
     7    4    5 1    
     8    4   75 1    
     9    5    6 1    
    10    5   35 1    
    11    5   76 1    
    12    6    7 1    
    13    6   77 1    
    14    6   78 1    
    15    7    8 1    
    16    8    9 1    
    17    8   79 1    
    18    8   80 1    
    19    9   10 ar   
    20    9   14 ar   
    21   10   11 ar   
    22   10   81 1    
    23   11   12 ar   
    24   11   71 1    
    25   12   13 ar   
    26   12   82 1    
    27   13   14 ar   
    28   13   15 1    
    29   14   83 1    
    30   15   16 1    
    31   15   84 1    
    32   15   85 1    
    33   16   17 1    
    34   17   18 1    
    35   17   86 1    
    36   17   87 1    
    37   18   19 1    
    38   18   37 1    
    39   18   88 1    
    40   19   20 am   BACKBONE|DICT|INTERRES
    41   19   89 1    
    42   20   21 2    
    43   20   22 1    
    44   22   23 1    
    45   22   24 1    
    46   22   90 1    
    47   23   91 1    
    48   23   92 1    
    49   23   93 1    
    50   24   25 am   BACKBONE|DICT|INTERRES
    51   24   94 1    
    52   25   26 2    
    53   25   27 1    
    54   27   28 1    
    55   27   29 1    
    56   27   95 1    
    57   28   96 1    
    58   28   97 1    
    59   28   98 1    
    60   29   30 am   BACKBONE|DICT|INTERRES
    61   29   99 1    
    62   30   31 2    
    63   30   32 1    
    64   32   33 1    
    65   32   34 1    
    66   32  100 1    
    67   33  101 1    
    68   33  102 1    
    69   33  103 1    
    70   34   35 am   BACKBONE|DICT|INTERRES
    71   34  104 1    
    72   35   36 2    
    73   37   38 2    
    74   37   39 am   BACKBONE|DICT|INTERRES
    75   39   40 1    
    76   39  105 1    
    77   40   41 1    
    78   40   42 1    
    79   40  106 1    
    80   41  107 1    
    81   41  108 1    
    82   41  109 1    
    83   42   43 2    
    84   42   44 am   BACKBONE|DICT|INTERRES
    85   44   45 1    
    86   44  110 1    
    87   45   46 1    
    88   45   47 1    
    89   45  111 1    
    90   46  112 1    
    91   46  113 1    
    92   46  114 1    
    93   47   48 2    
    94   47   49 am   BACKBONE|DICT|INTERRES
    95   49   50 1    
    96   49  115 1    
    97   50   51 1    
    98   50   52 1    
    99   50  116 1    
   100   51  117 1    
   101   51  118 1    
   102   51  119 1    
   103   52   53 2    
   104   52   54 am   BACKBONE|DICT|INTERRES
   105   54   55 1    
   106   54  120 1    
   107   55   56 1    
   108   55   57 1    
   109   55  121 1    
   110   56  122 1    
   111   56  123 1    
   112   56  124 1    
   113   57   58 2    
   114   57   59 am   BACKBONE|DICT|INTERRES
   115   59   60 1    
   116   59  125 1    
   117   60   61 1    
   118   60   62 1    
   119   60  126 1    
   120   61  127 1    
   121   61  128 1    
   122   61  129 1    
   123   62   63 2    
   124   62   64 am   BACKBONE|DICT|INTERRES
   125   64   65 1    
   126   64  130 1    
   127   65   66 1    
   128   65   69 1    
   129   65  131 1    
   130   66   67 am   BACKBONE|DICT|INTERRES
   131   66   68 2    
   132   67  132 1    
   133   67  133 1    
   134   69   70 1    
   135   69  134 1    
   136   69  135 1    
   137   70   71 1    
   138   71  136 1    
   139   71  137 1    
@<TRIPOS>SUBSTRUCTURE
     1 UNK         1 GROUP             0       ****    0 ROOT    
