@<TRIPOS>MOLECULE
3R137
137   139    1
SMALL
USER_CHARGES


@<TRIPOS>ATOM
      1 CA         25.8642   -7.2483   -1.9853 C.3       0 UNK        -0.2020 
      2 C          26.4729   -5.8775   -1.7330 C.2       0 UNK         0.4855 
      3 O          26.2238   -5.2780   -0.6858 O.2       0 UNK        -0.5197 
      4 N          27.2691   -5.3709   -2.6829 N.am      1 UNK        -0.4892 
      5 CA         27.9339   -4.0663   -2.6193 C.3       1 UNK         0.0835 
      6 C6         29.1419   -3.9795   -3.5877 C.3       12 UNK        -0.0855 
      7 S7         30.5582   -5.0143   -3.0965 S.3       12 UNK        -0.2931 
      8 C8         31.3310   -4.0243   -1.7704 C.3       12 UNK         0.0378 
      9 C9         31.7030   -2.6084   -2.1998 C.ar      12 UNK        -0.0802 
     10 C10        32.8489   -2.3781   -2.9690 C.ar      12 UNK        -0.0944 
     11 C11        33.2220   -1.0754   -3.3208 C.ar      12 UNK        -0.0787 
     12 C12        32.4348   -0.0012   -2.8907 C.ar      12 UNK        -0.0862 
     13 C13        31.2735   -0.2171   -2.1441 C.ar      12 UNK        -0.0733 
     14 C14        30.9170   -1.5231   -1.7952 C.ar      12 UNK        -0.0832 
     15 C15        30.4289    0.9660   -1.6859 C.3       12 UNK         0.0240 
     16 S16        29.7040    1.8951   -3.0775 S.3       12 UNK        -0.2522 
     17 C17        28.3915    0.7643   -3.6437 C.3       12 UNK        -0.0967 
     18 CA         28.0354    0.9614   -5.1386 C.3       5 UNK         0.0660 
     19 N          27.3424   -0.2085   -5.6779 N.am      5 UNK        -0.4015 
     20 C          27.0386   -0.4138   -6.9652 C.2       4 UNK         0.4946 
     21 O          27.3668    0.3455   -7.8749 O.2       4 UNK        -0.5353 
     22 CA         26.1902   -1.6531   -7.2869 C.3       4 UNK         0.0277 
     23 CB         27.0648   -2.9072   -7.4375 C.3       4 UNK        -0.1981 
     24 N          25.1653   -1.8886   -6.2687 N.am      4 UNK        -0.4209 
     25 C          24.0326   -1.1813   -6.1626 C.2       3 UNK         0.4942 
     26 O          23.7135   -0.2805   -6.9382 O.2       3 UNK        -0.5208 
     27 CA         23.1072   -1.5235   -4.9818 C.3       3 UNK         0.0250 
     28 CB         22.1881   -2.7023   -5.3398 C.3       3 UNK        -0.1990 
     29 N          23.8257   -1.8219   -3.7385 N.am      3 UNK        -0.4232 
     30 C          24.5575   -0.9281   -3.0596 C.2       2 UNK         0.4993 
     31 O          24.7392    0.2324   -3.4275 O.2       2 UNK        -0.5286 
     32 CA         25.2435   -1.4212   -1.7741 C.3       2 UNK         0.0209 
     33 CB         24.2145   -1.6167   -0.6485 C.3       2 UNK        -0.1931 
     34 N          26.0652   -2.6340   -1.9036 N.am      2 UNK        -0.4546 
     35 C          26.9415   -2.9144   -2.8780 C.2       1 UNK         0.5154 
     36 O          27.0016   -2.2982   -3.9412 O.2       1 UNK        -0.5181 
     37 C          27.2273    2.2521   -5.3928 C.2       5 UNK         0.5014 
     38 O          27.7880    3.2288   -5.8915 O.2       5 UNK        -0.5248 
     39 N          25.9118    2.2137   -5.1245 N.am      6 UNK        -0.4434 
     40 CA         24.9632    3.2932   -5.4245 C.3       6 UNK         0.0363 
     41 CB         23.5877    2.9445   -4.8347 C.3       6 UNK        -0.1936 
     42 C          24.8361    3.6086   -6.9272 C.2       6 UNK         0.5081 
     43 O          24.5979    4.7628   -7.2827 O.2       6 UNK        -0.5248 
     44 N          25.0257    2.5939   -7.7812 N.am      7 UNK        -0.4718 
     45 CA         25.0723    2.7194   -9.2410 C.3       7 UNK         0.0273 
     46 CB         24.6592    1.3764   -9.8681 C.3       7 UNK        -0.1935 
     47 C          26.4472    3.1742   -9.7749 C.2       7 UNK         0.5018 
     48 O          26.5871    3.3222  -10.9898 O.2       7 UNK        -0.5186 
     49 N          27.4290    3.3778   -8.8814 N.am      8 UNK        -0.4240 
     50 CA         28.8236    3.7508   -9.1476 C.3       8 UNK         0.0235 
     51 CB         28.9164    5.1449   -9.8055 C.3       8 UNK        -0.2000 
     52 C          29.6153    2.6654   -9.9052 C.2       8 UNK         0.4941 
     53 O          30.5191    2.9943  -10.6771 O.2       8 UNK        -0.5273 
     54 N          29.2754    1.3950   -9.6571 N.am      9 UNK        -0.4262 
     55 CA         29.9830    0.2112  -10.1346 C.3       9 UNK         0.0264 
     56 CB         28.9705   -0.7239  -10.8300 C.3       9 UNK        -0.1955 
     57 C          30.7124   -0.4183   -8.9337 C.2       9 UNK         0.5031 
     58 O          31.4536    0.2899   -8.2489 O.2       9 UNK        -0.5390 
     59 N          30.5029   -1.7226   -8.6989 N.am      10 UNK        -0.4204 
     60 CA         31.0213   -2.5634   -7.6079 C.3       10 UNK         0.0237 
     61 CB         30.6148   -2.0249   -6.2196 C.3       10 UNK        -0.1985 
     62 C          32.5363   -2.8178   -7.6523 C.2       10 UNK         0.4970 
     63 O          32.9558   -3.9751   -7.6282 O.2       10 UNK        -0.4914 
     64 N          33.3211   -1.7389   -7.6732 N.am      11 UNK        -0.4285 
     65 CA         34.7755   -1.7441   -7.4592 C.3       11 UNK         0.1007 
     66 C          35.6225   -2.1600   -8.6958 C.2       11 UNK         0.5703 
     67 N          35.0356   -2.3550   -9.8708 N.am      11 UNK        -0.7361 
     68 O          36.8360   -2.3182   -8.5840 O.2       11 UNK        -0.4986 
     69 C69        35.2780   -0.4052   -6.8468 C.3       12 UNK        -0.0947 
     70 S70        34.1882    0.2837   -5.5518 S.3       12 UNK        -0.2240 
     71 C71        34.4865   -0.8325   -4.1409 C.3       12 UNK         0.0194 
     72 H72        26.1690   -7.9430   -1.2031 H         1 UNK         0.0906 
     73 H73        24.7766   -7.1827   -1.9779 H         1 UNK         0.0906 
     74 H74        26.1729   -7.6620   -2.9451 H         1 UNK         0.0906 
     75 H75        27.4387   -5.9039   -3.5243 H         1 UNK         0.3140 
     76 H76        28.3120   -3.9223   -1.6051 H         1 UNK         0.1085 
     77 H77        29.4923   -2.9516   -3.6803 H         1 UNK         0.0836 
     78 H78        28.8421   -4.2720   -4.5956 H         1 UNK         0.0836 
     79 H79        32.2296   -4.5419   -1.4314 H         1 UNK         0.0731 
     80 H80        30.6624   -3.9989   -0.9087 H         1 UNK         0.0731 
     81 H81        33.4545   -3.2171   -3.2839 H         1 UNK         0.1312 
     82 H82        32.7189    1.0100   -3.1484 H         1 UNK         0.1406 
     83 H83        30.0319   -1.6946   -1.1980 H         1 UNK         0.1631 
     84 H84        31.0593    1.6422   -1.1070 H         1 UNK         0.0717 
     85 H85        29.6302    0.6449   -1.0153 H         1 UNK         0.0717 
     86 H86        28.7500   -0.2545   -3.4909 H         1 UNK         0.0934 
     87 H87        27.5138    0.8741   -3.0042 H         1 UNK         0.0934 
     88 H88        28.9687    1.0447   -5.7011 H         1 UNK         0.0739 
     89 H89        27.0758   -0.9259   -5.0036 H         1 UNK         0.3093 
     90 H90        25.6949   -1.4732   -8.2435 H         1 UNK         0.0818 
     91 H91        27.8520   -2.7491   -8.1740 H         1 UNK         0.0819 
     92 H92        26.4746   -3.7589   -7.7758 H         1 UNK         0.0819 
     93 H93        27.5417   -3.1872   -6.4984 H         1 UNK         0.0819 
     94 H94        25.3897   -2.5541   -5.5411 H         1 UNK         0.3041 
     95 H95        22.4796   -0.6485   -4.7982 H         1 UNK         0.0784 
     96 H96        21.6269   -2.4955   -6.2523 H         1 UNK         0.0793 
     97 H97        22.7522   -3.6211   -5.5054 H         1 UNK         0.0793 
     98 H98        21.4601   -2.8920   -4.5507 H         1 UNK         0.0793 
     99 H99        23.7514   -2.7604   -3.3735 H         1 UNK         0.3024 
    100 H100       25.9218   -0.6233   -1.4649 H         1 UNK         0.1171 
    101 H101       24.7041   -1.7973    0.3087 H         1 UNK         0.0786 
    102 H102       23.5908   -0.7295   -0.5276 H         1 UNK         0.0786 
    103 H103       23.5508   -2.4588   -0.8477 H         1 UNK         0.0786 
    104 H104       26.0409   -3.2814   -1.1219 H         1 UNK         0.2977 
    105 H105       25.5250    1.3910   -4.6639 H         1 UNK         0.3127 
    106 H106       25.3276    4.1968   -4.9314 H         1 UNK         0.0770 
    107 H107       23.1892    2.0237   -5.2627 H         1 UNK         0.0814 
    108 H108       22.8645    3.7372   -5.0307 H         1 UNK         0.0814 
    109 H109       23.6411    2.8148   -3.7536 H         1 UNK         0.0814 
    110 H110       25.1953    1.6701   -7.4046 H         1 UNK         0.2983 
    111 H111       24.3452    3.4731   -9.5510 H         1 UNK         0.0947 
    112 H112       24.5902    1.4555  -10.9537 H         1 UNK         0.0806 
    113 H113       23.6840    1.0511   -9.5053 H         1 UNK         0.0806 
    114 H114       25.3789    0.5887   -9.6463 H         1 UNK         0.0806 
    115 H115       27.2174    3.2092   -7.9036 H         1 UNK         0.3000 
    116 H116       29.2983    3.8249   -8.1681 H         1 UNK         0.0850 
    117 H117       29.9512    5.4866   -9.8512 H         1 UNK         0.0810 
    118 H118       28.3561    5.8888   -9.2392 H         1 UNK         0.0810 
    119 H119       28.5330    5.1392  -10.8261 H         1 UNK         0.0810 
    120 H120       28.5359    1.2070   -8.9802 H         1 UNK         0.3040 
    121 H121       30.7479    0.4869  -10.8631 H         1 UNK         0.0766 
    122 H122       28.4788   -0.2109  -11.6569 H         1 UNK         0.0812 
    123 H123       28.1874   -1.0615  -10.1497 H         1 UNK         0.0812 
    124 H124       29.4594   -1.6024  -11.2528 H         1 UNK         0.0812 
    125 H125       29.9158   -2.2085   -9.3620 H         1 UNK         0.3205 
    126 H126       30.5404   -3.5356   -7.7289 H         1 UNK         0.0754 
    127 H127       31.0046   -2.6703   -5.4320 H         1 UNK         0.0769 
    128 H128       29.5345   -1.9846   -6.1032 H         1 UNK         0.0769 
    129 H129       31.0068   -1.0260   -6.0257 H         1 UNK         0.0769 
    130 H130       32.8689   -0.8285   -7.7173 H         1 UNK         0.2981 
    131 H131       34.9748   -2.5192   -6.7175 H         1 UNK         0.0541 
    132 H132       34.0403   -2.2352   -9.9662 H         1 UNK         0.3459 
    133 H133       35.5933   -2.6290  -10.6642 H         1 UNK         0.3459 
    134 H134       36.2810   -0.5250   -6.4334 H         1 UNK         0.0612 
    135 H135       35.3592    0.3546   -7.6264 H         1 UNK         0.0612 
    136 H136       34.8870   -1.7801   -4.5014 H         1 UNK         0.0624 
    137 H137       35.2533   -0.3964   -3.4997 H         1 UNK         0.0624 
@<TRIPOS>BOND
     1    1    2 1    
     2    1   72 1    
     3    1   73 1    
     4    1   74 1    
     5    2    3 2    
     6    2    4 am   BACKBONE|DICT|INTERRES
     7    4    5 1    
     8    4   75 1    
     9    5    6 1    
    10    5   35 1    
    11    5   76 1    
    12    6    7 1    
    13    6   77 1    
    14    6   78 1    
    15    7    8 1    
    16    8    9 1    
    17    8   79 1    
    18    8   80 1    
    19    9   10 ar   
    20    9   14 ar   
    21   10   11 ar   
    22   10   81 1    
    23   11   12 ar   
    24   11   71 1    
    25   12   13 ar   
    26   12   82 1    
    27   13   14 ar   
    28   13   15 1    
    29   14   83 1    
    30   15   16 1    
    31   15   84 1    
    32   15   85 1    
    33   16   17 1    
    34   17   18 1    
    35   17   86 1    
    36   17   87 1    
    37   18   19 1    
    38   18   37 1    
    39   18   88 1    
    40   19   20 am   BACKBONE|DICT|INTERRES
    41   19   89 1    
    42   20   21 2    
    43   20   22 1    
    44   22   23 1    
    45   22   24 1    
    46   22   90 1    
    47   23   91 1    
    48   23   92 1    
    49   23   93 1    
    50   24   25 am   BACKBONE|DICT|INTERRES
    51   24   94 1    
    52   25   26 2    
    53   25   27 1    
    54   27   28 1    
    55   27   29 1    
    56   27   95 1    
    57   28   96 1    
    58   28   97 1    
    59   28   98 1    
    60   29   30 am   BACKBONE|DICT|INTERRES
    61   29   99 1    
    62   30   31 2    
    63   30   32 1    
    64   32   33 1    
    65   32   34 1    
    66   32  100 1    
    67   33  101 1    
    68   33  102 1    
    69   33  103 1    
    70   34   35 am   BACKBONE|DICT|INTERRES
    71   34  104 1    
    72   35   36 2    
    73   37   38 2    
    74   37   39 am   BACKBONE|DICT|INTERRES
    75   39   40 1    
    76   39  105 1    
    77   40   41 1    
    78   40   42 1    
    79   40  106 1    
    80   41  107 1    
    81   41  108 1    
    82   41  109 1    
    83   42   43 2    
    84   42   44 am   BACKBONE|DICT|INTERRES
    85   44   45 1    
    86   44  110 1    
    87   45   46 1    
    88   45   47 1    
    89   45  111 1    
    90   46  112 1    
    91   46  113 1    
    92   46  114 1    
    93   47   48 2    
    94   47   49 am   BACKBONE|DICT|INTERRES
    95   49   50 1    
    96   49  115 1    
    97   50   51 1    
    98   50   52 1    
    99   50  116 1    
   100   51  117 1    
   101   51  118 1    
   102   51  119 1    
   103   52   53 2    
   104   52   54 am   BACKBONE|DICT|INTERRES
   105   54   55 1    
   106   54  120 1    
   107   55   56 1    
   108   55   57 1    
   109   55  121 1    
   110   56  122 1    
   111   56  123 1    
   112   56  124 1    
   113   57   58 2    
   114   57   59 am   BACKBONE|DICT|INTERRES
   115   59   60 1    
   116   59  125 1    
   117   60   61 1    
   118   60   62 1    
   119   60  126 1    
   120   61  127 1    
   121   61  128 1    
   122   61  129 1    
   123   62   63 2    
   124   62   64 am   BACKBONE|DICT|INTERRES
   125   64   65 1    
   126   64  130 1    
   127   65   66 1    
   128   65   69 1    
   129   65  131 1    
   130   66   67 am   BACKBONE|DICT|INTERRES
   131   66   68 2    
   132   67  132 1    
   133   67  133 1    
   134   69   70 1    
   135   69  134 1    
   136   69  135 1    
   137   70   71 1    
   138   71  136 1    
   139   71  137 1    
@<TRIPOS>SUBSTRUCTURE
     1 UNK         1 GROUP             0       ****    0 ROOT    
