@<TRIPOS>MOLECULE
3R137
137   139    1
SMALL
USER_CHARGES


@<TRIPOS>ATOM
      1 CA         23.7819   -2.1455    0.6135 C.3       0 UNK        -0.2020 
      2 C          25.2779   -1.8977    0.7378 C.2       0 UNK         0.4855 
      3 O          25.7379   -1.4245    1.7772 O.2       0 UNK        -0.5197 
      4 N          26.0391   -2.2106   -0.3139 N.am      1 UNK        -0.4892 
      5 CA         27.4812   -2.0073   -0.4166 C.3       1 UNK         0.0835 
      6 C6         28.2713   -3.1655    0.2520 C.3       12 UNK        -0.0855 
      7 S7         30.0698   -2.8553    0.4047 S.3       12 UNK        -0.2931 
      8 C8         30.8094   -4.4263   -0.1593 C.3       12 UNK         0.0378 
      9 C9         30.6319   -4.6738   -1.6534 C.ar      12 UNK        -0.0802 
     10 C10        31.5359   -4.1389   -2.5808 C.ar      12 UNK        -0.0944 
     11 C11        31.3849   -4.3945   -3.9500 C.ar      12 UNK        -0.0787 
     12 C12        30.3283   -5.2016   -4.3812 C.ar      12 UNK        -0.0862 
     13 C13        29.4016   -5.7105   -3.4705 C.ar      12 UNK        -0.0733 
     14 C14        29.5716   -5.4641   -2.1074 C.ar      12 UNK        -0.0832 
     15 C15        28.1949   -6.4925   -3.9627 C.3       12 UNK         0.0240 
     16 S16        26.7685   -5.3894   -4.2225 S.3       12 UNK        -0.2522 
     17 C17        27.3239   -4.4312   -5.6724 C.3       12 UNK        -0.0967 
     18 CA         26.1720   -3.6215   -6.3090 C.3       5 UNK         0.0660 
     19 N          25.6994   -2.5480   -5.4311 N.am      5 UNK        -0.4015 
     20 C          24.5589   -1.8652   -5.6082 C.2       4 UNK         0.4946 
     21 O          23.7589   -2.0817   -6.5193 O.2       4 UNK        -0.5353 
     22 CA         24.2619   -0.7441   -4.6023 C.3       4 UNK         0.0277 
     23 CB         23.6784   -1.3134   -3.2980 C.3       4 UNK        -0.1981 
     24 N          25.4697    0.0314   -4.3179 N.am      4 UNK        -0.4209 
     25 C          25.9032    1.0443   -5.0828 C.2       3 UNK         0.4942 
     26 O          25.2719    1.4944   -6.0388 O.2       3 UNK        -0.5208 
     27 CA         27.2603    1.6771   -4.7245 C.3       3 UNK         0.0250 
     28 CB         27.0533    2.9767   -3.9299 C.3       3 UNK        -0.1990 
     29 N          28.1465    0.7879   -3.9680 N.am      3 UNK        -0.4232 
     30 C          28.7449   -0.2969   -4.4773 C.2       2 UNK         0.4993 
     31 O          28.6239   -0.6654   -5.6431 O.2       2 UNK        -0.5286 
     32 CA         29.5926   -1.1355   -3.5125 C.3       2 UNK         0.0209 
     33 CB         31.0030   -0.5431   -3.3700 C.3       2 UNK        -0.1931 
     34 N          29.0112   -1.2960   -2.1811 N.am      2 UNK        -0.4546 
     35 C          27.8091   -1.8148   -1.9089 C.2       1 UNK         0.5154 
     36 O          26.9757   -2.1087   -2.7740 O.2       1 UNK        -0.5181 
     37 C          26.5732   -3.1016   -7.7041 C.2       5 UNK         0.5014 
     38 O          26.1990   -3.7218   -8.7012 O.2       5 UNK        -0.5248 
     39 N          27.3152   -1.9883   -7.7590 N.am      6 UNK        -0.4434 
     40 CA         27.7687   -1.3477   -8.9881 C.3       6 UNK         0.0363 
     41 CB         29.3030   -1.4232   -9.0619 C.3       6 UNK        -0.1936 
     42 C          27.2658    0.0986   -8.9932 C.2       6 UNK         0.5081 
     43 O          27.9383    0.9916   -8.4767 O.2       6 UNK        -0.5248 
     44 N          26.0915    0.3135   -9.6007 N.am      7 UNK        -0.4718 
     45 CA         25.4548    1.6300   -9.7467 C.3       7 UNK         0.0273 
     46 CB         24.0622    1.4517  -10.3720 C.3       7 UNK        -0.1935 
     47 C          26.2845    2.6479  -10.5549 C.2       7 UNK         0.5018 
     48 O          26.0935    3.8537  -10.3884 O.2       7 UNK        -0.5186 
     49 N          27.2134    2.1553  -11.3865 N.am      8 UNK        -0.4240 
     50 CA         28.2055    2.9291  -12.1340 C.3       8 UNK         0.0235 
     51 CB         28.7449    2.0586  -13.2848 C.3       8 UNK        -0.2000 
     52 C          29.3286    3.4691  -11.2218 C.2       8 UNK         0.4941 
     53 O          30.4929    3.1052  -11.3933 O.2       8 UNK        -0.5273 
     54 N          28.9467    4.3349  -10.2733 N.am      9 UNK        -0.4262 
     55 CA         29.7975    5.1064   -9.3581 C.3       9 UNK         0.0264 
     56 CB         30.6713    6.1078  -10.1459 C.3       9 UNK        -0.1955 
     57 C          30.6142    4.2726   -8.3461 C.2       9 UNK         0.5031 
     58 O          31.6387    4.7647   -7.8688 O.2       9 UNK        -0.5390 
     59 N          30.1183    3.0755   -7.9926 N.am      10 UNK        -0.4204 
     60 CA         30.6373    2.1270   -6.9969 C.3       10 UNK         0.0237 
     61 CB         30.8072    2.7859   -5.6119 C.3       10 UNK        -0.1985 
     62 C          31.9200    1.3919   -7.4247 C.2       10 UNK         0.4970 
     63 O          32.8208    1.9733   -8.0305 O.2       10 UNK        -0.4914 
     64 N          31.9881    0.1128   -7.0426 N.am      11 UNK        -0.4285 
     65 CA         33.1539   -0.7761   -7.1823 C.3       11 UNK         0.1007 
     66 C          34.2448   -0.5987   -6.0835 C.2       11 UNK         0.5703 
     67 N          34.0998    0.3184   -5.1340 N.am      11 UNK        -0.7361 
     68 O          35.2557   -1.2968   -6.1018 O.2       11 UNK        -0.4986 
     69 C69        32.7225   -2.2605   -7.3621 C.3       12 UNK        -0.0947 
     70 S70        31.4173   -2.8098   -6.2117 S.3       12 UNK        -0.2240 
     71 C71        32.3350   -3.7871   -4.9771 C.3       12 UNK         0.0194 
     72 H72        23.2393   -1.2023    0.6715 H         1 UNK         0.0906 
     73 H73        23.4390   -2.7867    1.4251 H         1 UNK         0.0906 
     74 H74        23.5245   -2.6281   -0.3292 H         1 UNK         0.0906 
     75 H75        25.6278   -2.5538   -1.1738 H         1 UNK         0.3140 
     76 H76        27.7298   -1.0712    0.0891 H         1 UNK         0.1085 
     77 H77        27.8966   -3.3220    1.2647 H         1 UNK         0.0836 
     78 H78        28.0800   -4.1004   -0.2713 H         1 UNK         0.0836 
     79 H79        30.3854   -5.2501    0.4172 H         1 UNK         0.0731 
     80 H80        31.8740   -4.4129    0.0788 H         1 UNK         0.0731 
     81 H81        32.3530   -3.5211   -2.2344 H         1 UNK         0.1312 
     82 H82        30.2018   -5.3947   -5.4377 H         1 UNK         0.1406 
     83 H83        28.8653   -5.8813   -1.4031 H         1 UNK         0.1631 
     84 H84        27.9236   -7.2569   -3.2331 H         1 UNK         0.0717 
     85 H85        28.4277   -7.0220   -4.8879 H         1 UNK         0.0717 
     86 H86        28.1355   -3.7647   -5.3734 H         1 UNK         0.0934 
     87 H87        27.7464   -5.1321   -6.3956 H         1 UNK         0.0934 
     88 H88        25.3328   -4.3038   -6.4629 H         1 UNK         0.0739 
     89 H89        26.2674   -2.3522   -4.6123 H         1 UNK         0.3093 
     90 H90        23.5096   -0.0855   -5.0424 H         1 UNK         0.0818 
     91 H91        22.7258   -1.8098   -3.4875 H         1 UNK         0.0819 
     92 H92        24.3380   -2.0502   -2.8415 H         1 UNK         0.0819 
     93 H93        23.4933   -0.5263   -2.5669 H         1 UNK         0.0819 
     94 H94        26.0666   -0.3121   -3.5766 H         1 UNK         0.3041 
     95 H95        27.7539    1.9257   -5.6666 H         1 UNK         0.0784 
     96 H96        26.4338    3.6796   -4.4887 H         1 UNK         0.0793 
     97 H97        26.5574    2.7924   -2.9761 H         1 UNK         0.0793 
     98 H98        28.0007    3.4754   -3.7253 H         1 UNK         0.0793 
     99 H99        28.2991    1.0091   -2.9946 H         1 UNK         0.3024 
    100 H100       29.6711   -2.1345   -3.9444 H         1 UNK         0.1171 
    101 H101       30.9861    0.4397   -2.8980 H         1 UNK         0.0786 
    102 H102       31.6467   -1.1880   -2.7725 H         1 UNK         0.0786 
    103 H103       31.4795   -0.4334   -4.3416 H         1 UNK         0.0786 
    104 H104       29.6327   -1.1296   -1.4011 H         1 UNK         0.2977 
    105 H105       27.6087   -1.5230   -6.8994 H         1 UNK         0.3127 
    106 H106       27.3674   -1.8504   -9.8705 H         1 UNK         0.0770 
    107 H107       29.7637   -0.9741   -8.1839 H         1 UNK         0.0814 
    108 H108       29.6830   -0.8970   -9.9383 H         1 UNK         0.0814 
    109 H109       29.6459   -2.4560   -9.1233 H         1 UNK         0.0814 
    110 H110       25.5903   -0.4770   -9.9814 H         1 UNK         0.2983 
    111 H111       25.3310    2.0464   -8.7445 H         1 UNK         0.0947 
    112 H112       24.1194    1.0118  -11.3684 H         1 UNK         0.0806 
    113 H113       23.5518    2.4112  -10.4679 H         1 UNK         0.0806 
    114 H114       23.4299    0.8121   -9.7558 H         1 UNK         0.0806 
    115 H115       27.3036    1.1513  -11.4324 H         1 UNK         0.3000 
    116 H116       27.7070    3.7939  -12.5777 H         1 UNK         0.0850 
    117 H117       29.4653    2.6124  -13.8885 H         1 UNK         0.0810 
    118 H118       27.9435    1.7409  -13.9522 H         1 UNK         0.0810 
    119 H119       29.2486    1.1647  -12.9146 H         1 UNK         0.0810 
    120 H120       27.9466    4.5023  -10.1937 H         1 UNK         0.3040 
    121 H121       29.1076    5.6943   -8.7509 H         1 UNK         0.0766 
    122 H122       31.4391    5.5996  -10.7301 H         1 UNK         0.0812 
    123 H123       31.1804    6.8002   -9.4743 H         1 UNK         0.0812 
    124 H124       30.0710    6.7083  -10.8292 H         1 UNK         0.0812 
    125 H125       29.2861    2.7479   -8.4708 H         1 UNK         0.3205 
    126 H126       29.8569    1.3748   -6.8935 H         1 UNK         0.0754 
    127 H127       31.6442    3.4843   -5.5907 H         1 UNK         0.0769 
    128 H128       30.9954    2.0380   -4.8428 H         1 UNK         0.0769 
    129 H129       29.9104    3.3306   -5.3188 H         1 UNK         0.0769 
    130 H130       31.1992   -0.3016   -6.5660 H         1 UNK         0.2981 
    131 H131       33.6613   -0.4950   -8.1068 H         1 UNK         0.0541 
    132 H132       33.3018    0.9296   -5.1261 H         1 UNK         0.3459 
    133 H133       34.8222    0.4208   -4.4391 H         1 UNK         0.3459 
    134 H134       33.5733   -2.9423   -7.3128 H         1 UNK         0.0612 
    135 H135       32.3178   -2.3844   -8.3675 H         1 UNK         0.0612 
    136 H136       33.0742   -3.1466   -4.4939 H         1 UNK         0.0624 
    137 H137       32.8821   -4.5865   -5.4782 H         1 UNK         0.0624 
@<TRIPOS>BOND
     1    1    2 1    
     2    1   72 1    
     3    1   73 1    
     4    1   74 1    
     5    2    3 2    
     6    2    4 am   BACKBONE|DICT|INTERRES
     7    4    5 1    
     8    4   75 1    
     9    5    6 1    
    10    5   35 1    
    11    5   76 1    
    12    6    7 1    
    13    6   77 1    
    14    6   78 1    
    15    7    8 1    
    16    8    9 1    
    17    8   79 1    
    18    8   80 1    
    19    9   10 ar   
    20    9   14 ar   
    21   10   11 ar   
    22   10   81 1    
    23   11   12 ar   
    24   11   71 1    
    25   12   13 ar   
    26   12   82 1    
    27   13   14 ar   
    28   13   15 1    
    29   14   83 1    
    30   15   16 1    
    31   15   84 1    
    32   15   85 1    
    33   16   17 1    
    34   17   18 1    
    35   17   86 1    
    36   17   87 1    
    37   18   19 1    
    38   18   37 1    
    39   18   88 1    
    40   19   20 am   BACKBONE|DICT|INTERRES
    41   19   89 1    
    42   20   21 2    
    43   20   22 1    
    44   22   23 1    
    45   22   24 1    
    46   22   90 1    
    47   23   91 1    
    48   23   92 1    
    49   23   93 1    
    50   24   25 am   BACKBONE|DICT|INTERRES
    51   24   94 1    
    52   25   26 2    
    53   25   27 1    
    54   27   28 1    
    55   27   29 1    
    56   27   95 1    
    57   28   96 1    
    58   28   97 1    
    59   28   98 1    
    60   29   30 am   BACKBONE|DICT|INTERRES
    61   29   99 1    
    62   30   31 2    
    63   30   32 1    
    64   32   33 1    
    65   32   34 1    
    66   32  100 1    
    67   33  101 1    
    68   33  102 1    
    69   33  103 1    
    70   34   35 am   BACKBONE|DICT|INTERRES
    71   34  104 1    
    72   35   36 2    
    73   37   38 2    
    74   37   39 am   BACKBONE|DICT|INTERRES
    75   39   40 1    
    76   39  105 1    
    77   40   41 1    
    78   40   42 1    
    79   40  106 1    
    80   41  107 1    
    81   41  108 1    
    82   41  109 1    
    83   42   43 2    
    84   42   44 am   BACKBONE|DICT|INTERRES
    85   44   45 1    
    86   44  110 1    
    87   45   46 1    
    88   45   47 1    
    89   45  111 1    
    90   46  112 1    
    91   46  113 1    
    92   46  114 1    
    93   47   48 2    
    94   47   49 am   BACKBONE|DICT|INTERRES
    95   49   50 1    
    96   49  115 1    
    97   50   51 1    
    98   50   52 1    
    99   50  116 1    
   100   51  117 1    
   101   51  118 1    
   102   51  119 1    
   103   52   53 2    
   104   52   54 am   BACKBONE|DICT|INTERRES
   105   54   55 1    
   106   54  120 1    
   107   55   56 1    
   108   55   57 1    
   109   55  121 1    
   110   56  122 1    
   111   56  123 1    
   112   56  124 1    
   113   57   58 2    
   114   57   59 am   BACKBONE|DICT|INTERRES
   115   59   60 1    
   116   59  125 1    
   117   60   61 1    
   118   60   62 1    
   119   60  126 1    
   120   61  127 1    
   121   61  128 1    
   122   61  129 1    
   123   62   63 2    
   124   62   64 am   BACKBONE|DICT|INTERRES
   125   64   65 1    
   126   64  130 1    
   127   65   66 1    
   128   65   69 1    
   129   65  131 1    
   130   66   67 am   BACKBONE|DICT|INTERRES
   131   66   68 2    
   132   67  132 1    
   133   67  133 1    
   134   69   70 1    
   135   69  134 1    
   136   69  135 1    
   137   70   71 1    
   138   71  136 1    
   139   71  137 1    
@<TRIPOS>SUBSTRUCTURE
     1 UNK         1 GROUP             0       ****    0 ROOT    
