@<TRIPOS>MOLECULE
3R137
137   139    1
SMALL
USER_CHARGES


@<TRIPOS>ATOM
      1 CA         23.7514   -7.2791   -2.8213 C.3       0 UNK        -0.2020 
      2 C          24.9840   -6.4526   -2.4879 C.2       0 UNK         0.4855 
      3 O          25.3154   -6.2907   -1.3126 O.2       0 UNK        -0.5197 
      4 N          25.6646   -5.9177   -3.5101 N.am      1 UNK        -0.4892 
      5 CA         26.8545   -5.0693   -3.3856 C.3       1 UNK         0.0835 
      6 C6         27.7017   -5.1107   -4.6869 C.3       12 UNK        -0.0855 
      7 S7         29.4025   -4.4925   -4.4402 S.3       12 UNK        -0.2931 
      8 C8         29.3692   -2.9129   -5.3498 C.3       12 UNK         0.0378 
      9 C9         30.1942   -1.8588   -4.6307 C.ar      12 UNK        -0.0802 
     10 C10        31.4716   -1.5256   -5.0873 C.ar      12 UNK        -0.0944 
     11 C11        32.2414   -0.5751   -4.4097 C.ar      12 UNK        -0.0787 
     12 C12        31.7130    0.0638   -3.2843 C.ar      12 UNK        -0.0862 
     13 C13        30.4320   -0.2550   -2.8233 C.ar      12 UNK        -0.0733 
     14 C14        29.6808   -1.2230   -3.4966 C.ar      12 UNK        -0.0832 
     15 C15        29.8729    0.4341   -1.5872 C.3       12 UNK         0.0240 
     16 S16        29.0389    1.9978   -2.0063 S.3       12 UNK        -0.2522 
     17 C17        27.4444    1.4111   -2.6715 C.3       12 UNK        -0.0967 
     18 CA         27.4146    1.3262   -4.2171 C.3       5 UNK         0.0660 
     19 N          26.3573    0.4209   -4.6806 N.am      5 UNK        -0.4015 
     20 C          26.2617   -0.0664   -5.9274 C.2       4 UNK         0.4946 
     21 O          27.1044    0.1502   -6.8010 O.2       4 UNK        -0.5353 
     22 CA         25.0136   -0.8992   -6.2755 C.3       4 UNK         0.0277 
     23 CB         25.3645   -2.1092   -7.1558 C.3       4 UNK        -0.1981 
     24 N          24.3271   -1.3761   -5.0751 N.am      4 UNK        -0.4209 
     25 C          23.1036   -1.0062   -4.6720 C.2       3 UNK         0.4942 
     26 O          22.3965   -0.2056   -5.2846 O.2       3 UNK        -0.5208 
     27 CA         22.5667   -1.6223   -3.3632 C.3       3 UNK         0.0250 
     28 CB         21.5605   -2.7424   -3.6749 C.3       3 UNK        -0.1990 
     29 N          23.6061   -2.1534   -2.4763 N.am      3 UNK        -0.4232 
     30 C          24.5467   -1.4205   -1.8648 C.2       2 UNK         0.4993 
     31 O          24.6224   -0.1948   -1.9516 O.2       2 UNK        -0.5286 
     32 CA         25.6306   -2.1946   -1.0921 C.3       2 UNK         0.0209 
     33 CB         25.1883   -2.4369    0.3593 C.3       2 UNK        -0.1931 
     34 N          26.0182   -3.4739   -1.7052 N.am      2 UNK        -0.4546 
     35 C          26.4461   -3.6406   -2.9652 C.2       1 UNK         0.5154 
     36 O          26.4691   -2.7269   -3.7888 O.2       1 UNK        -0.5181 
     37 C          27.3154    2.7147   -4.8830 C.2       5 UNK         0.5014 
     38 O          28.3456    3.3177   -5.1822 O.2       5 UNK        -0.5248 
     39 N          26.0848    3.1686   -5.1700 N.am      6 UNK        -0.4434 
     40 CA         25.8075    4.3872   -5.9383 C.3       6 UNK         0.0363 
     41 CB         24.3086    4.7156   -5.8497 C.3       6 UNK        -0.1936 
     42 C          26.2516    4.2865   -7.4104 C.2       6 UNK         0.5081 
     43 O          26.6333    5.2990   -7.9972 O.2       6 UNK        -0.5248 
     44 N          26.2096    3.0700   -7.9725 N.am      7 UNK        -0.4718 
     45 CA         26.7172    2.7532   -9.3098 C.3       7 UNK         0.0273 
     46 CB         25.9601    1.5304   -9.8561 C.3       7 UNK        -0.1935 
     47 C          28.2350    2.4918   -9.3208 C.2       7 UNK         0.5018 
     48 O          28.8363    2.5472  -10.3939 O.2       7 UNK        -0.5186 
     49 N          28.8117    2.2007   -8.1427 N.am      8 UNK        -0.4240 
     50 CA         30.2045    1.8189   -7.8846 C.3       8 UNK         0.0235 
     51 CB         31.1550    3.0000   -8.1757 C.3       8 UNK        -0.2000 
     52 C          30.5889    0.5329   -8.6376 C.2       8 UNK         0.4941 
     53 O          31.6307    0.4909   -9.2961 O.2       8 UNK        -0.5273 
     54 N          29.7224   -0.4883   -8.5569 N.am      9 UNK        -0.4262 
     55 CA         29.7414   -1.7153   -9.3686 C.3       9 UNK         0.0264 
     56 CB         28.3667   -2.3974   -9.2566 C.3       9 UNK        -0.1955 
     57 C          30.9160   -2.6926   -9.1170 C.2       9 UNK         0.5031 
     58 O          30.7004   -3.9033   -9.0429 O.2       9 UNK        -0.5390 
     59 N          32.1346   -2.1535   -9.0360 N.am      10 UNK        -0.4204 
     60 CA         33.4288   -2.8384   -9.0237 C.3       10 UNK         0.0237 
     61 CB         33.6154   -3.7396   -7.7842 C.3       10 UNK        -0.1985 
     62 C          34.5519   -1.7959   -9.0985 C.2       10 UNK         0.4970 
     63 O          35.4798   -1.9531   -9.8919 O.2       10 UNK        -0.4914 
     64 N          34.4404   -0.7565   -8.2634 N.am      11 UNK        -0.4285 
     65 CA         35.3931    0.3549   -8.1336 C.3       11 UNK         0.1007 
     66 C          35.2673    1.4623   -9.2182 C.2       11 UNK         0.5703 
     67 N          34.1582    1.5807   -9.9361 N.am      11 UNK        -0.7361 
     68 O          36.2126    2.2193   -9.4271 O.2       11 UNK        -0.4986 
     69 C69        35.3924    0.9385   -6.6912 C.3       12 UNK        -0.0947 
     70 S70        33.7225    1.1649   -5.9780 S.3       12 UNK        -0.2240 
     71 C71        33.6587   -0.2723   -4.8664 C.3       12 UNK         0.0194 
     72 H72        23.8677   -8.2941   -2.4424 H         1 UNK         0.0906 
     73 H73        22.8689   -6.8410   -2.3559 H         1 UNK         0.0906 
     74 H74        23.5756   -7.3363   -3.8952 H         1 UNK         0.0906 
     75 H75        25.3321   -6.0656   -4.4530 H         1 UNK         0.3140 
     76 H76        27.4732   -5.4748   -2.5812 H         1 UNK         0.1085 
     77 H77        27.2099   -4.5847   -5.5067 H         1 UNK         0.0836 
     78 H78        27.7978   -6.1443   -5.0236 H         1 UNK         0.0836 
     79 H79        28.3516   -2.5435   -5.4711 H         1 UNK         0.0731 
     80 H80        29.7505   -3.0818   -6.3571 H         1 UNK         0.0731 
     81 H81        31.8696   -2.0212   -5.9600 H         1 UNK         0.1312 
     82 H82        32.3036    0.8039   -2.7614 H         1 UNK         0.1406 
     83 H83        28.6928   -1.4826   -3.1429 H         1 UNK         0.1631 
     84 H84        30.6853    0.6501   -0.8917 H         1 UNK         0.0717 
     85 H85        29.1887   -0.2258   -1.0517 H         1 UNK         0.0717 
     86 H86        27.2460    0.4296   -2.2420 H         1 UNK         0.0934 
     87 H87        26.6457    2.0551   -2.2978 H         1 UNK         0.0934 
     88 H88        28.3588    0.8956   -4.5545 H         1 UNK         0.0739 
     89 H89        25.6393    0.1821   -4.0087 H         1 UNK         0.3093 
     90 H90        24.3567   -0.2454   -6.8523 H         1 UNK         0.0818 
     91 H91        26.1198   -2.7413   -6.6892 H         1 UNK         0.0819 
     92 H92        24.4870   -2.7246   -7.3538 H         1 UNK         0.0819 
     93 H93        25.7498   -1.7847   -8.1213 H         1 UNK         0.0819 
     94 H94        24.8767   -2.0032   -4.4915 H         1 UNK         0.3041 
     95 H95        22.0432   -0.8295   -2.8245 H         1 UNK         0.0784 
     96 H96        20.7516   -2.3760   -4.3088 H         1 UNK         0.0793 
     97 H97        22.0323   -3.5752   -4.1981 H         1 UNK         0.0793 
     98 H98        21.1036   -3.1315   -2.7647 H         1 UNK         0.0793 
     99 H99        23.6352   -3.1554   -2.3565 H         1 UNK         0.3024 
    100 H100       26.5220   -1.5649   -1.0744 H         1 UNK         0.1171 
    101 H101       25.9907   -2.8795    0.9499 H         1 UNK         0.0786 
    102 H102       24.9099   -1.5005    0.8452 H         1 UNK         0.0786 
    103 H103       24.3258   -3.1025    0.4131 H         1 UNK         0.0786 
    104 H104       25.9417   -4.3053   -1.1284 H         1 UNK         0.2977 
    105 H105       25.2868    2.6219   -4.8806 H         1 UNK         0.3127 
    106 H106       26.3659    5.2075   -5.4819 H         1 UNK         0.0770 
    107 H107       23.6932    3.9217   -6.2749 H         1 UNK         0.0814 
    108 H108       24.0786    5.6324   -6.3946 H         1 UNK         0.0814 
    109 H109       23.9953    4.8686   -4.8168 H         1 UNK         0.0814 
    110 H110       25.8924    2.2902   -7.4158 H         1 UNK         0.2983 
    111 H111       26.5251    3.5984   -9.9749 H         1 UNK         0.0947 
    112 H112       26.2830    1.2951  -10.8712 H         1 UNK         0.0806 
    113 H113       24.8859    1.7116   -9.8933 H         1 UNK         0.0806 
    114 H114       26.1309    0.6411   -9.2490 H         1 UNK         0.0806 
    115 H115       28.2010    2.1506   -7.3383 H         1 UNK         0.3000 
    116 H116       30.2753    1.5877   -6.8201 H         1 UNK         0.0850 
    117 H117       32.1820    2.7548   -7.9065 H         1 UNK         0.0810 
    118 H118       30.8726    3.8832   -7.6030 H         1 UNK         0.0810 
    119 H119       31.1577    3.2697   -9.2321 H         1 UNK         0.0810 
    120 H120       28.9009   -0.3546   -7.9761 H         1 UNK         0.3040 
    121 H121       29.8500   -1.3985  -10.4081 H         1 UNK         0.0766 
    122 H122       27.5715   -1.7235   -9.5742 H         1 UNK         0.0812 
    123 H123       28.1577   -2.7151   -8.2352 H         1 UNK         0.0812 
    124 H124       28.3064   -3.2804   -9.8941 H         1 UNK         0.0812 
    125 H125       32.1678   -1.1405   -9.1672 H         1 UNK         0.3205 
    126 H126       33.4841   -3.4588   -9.9204 H         1 UNK         0.0754 
    127 H127       34.5815   -4.2446   -7.8205 H         1 UNK         0.0769 
    128 H128       32.8558   -4.5183   -7.7244 H         1 UNK         0.0769 
    129 H129       33.5875   -3.1724   -6.8551 H         1 UNK         0.0769 
    130 H130       33.6378   -0.6942   -7.6559 H         1 UNK         0.2981 
    131 H131       36.3887   -0.0659   -8.2885 H         1 UNK         0.0541 
    132 H132       33.3290    1.0327   -9.7238 H         1 UNK         0.3459 
    133 H133       34.1100    2.2974  -10.6413 H         1 UNK         0.3459 
    134 H134       35.9627    0.2753   -6.0392 H         1 UNK         0.0612 
    135 H135       35.9195    1.8935   -6.6487 H         1 UNK         0.0612 
    136 H136       34.2986   -0.0836   -4.0029 H         1 UNK         0.0624 
    137 H137       34.0764   -1.1458   -5.3689 H         1 UNK         0.0624 
@<TRIPOS>BOND
     1    1    2 1    
     2    1   72 1    
     3    1   73 1    
     4    1   74 1    
     5    2    3 2    
     6    2    4 am   BACKBONE|DICT|INTERRES
     7    4    5 1    
     8    4   75 1    
     9    5    6 1    
    10    5   35 1    
    11    5   76 1    
    12    6    7 1    
    13    6   77 1    
    14    6   78 1    
    15    7    8 1    
    16    8    9 1    
    17    8   79 1    
    18    8   80 1    
    19    9   10 ar   
    20    9   14 ar   
    21   10   11 ar   
    22   10   81 1    
    23   11   12 ar   
    24   11   71 1    
    25   12   13 ar   
    26   12   82 1    
    27   13   14 ar   
    28   13   15 1    
    29   14   83 1    
    30   15   16 1    
    31   15   84 1    
    32   15   85 1    
    33   16   17 1    
    34   17   18 1    
    35   17   86 1    
    36   17   87 1    
    37   18   19 1    
    38   18   37 1    
    39   18   88 1    
    40   19   20 am   BACKBONE|DICT|INTERRES
    41   19   89 1    
    42   20   21 2    
    43   20   22 1    
    44   22   23 1    
    45   22   24 1    
    46   22   90 1    
    47   23   91 1    
    48   23   92 1    
    49   23   93 1    
    50   24   25 am   BACKBONE|DICT|INTERRES
    51   24   94 1    
    52   25   26 2    
    53   25   27 1    
    54   27   28 1    
    55   27   29 1    
    56   27   95 1    
    57   28   96 1    
    58   28   97 1    
    59   28   98 1    
    60   29   30 am   BACKBONE|DICT|INTERRES
    61   29   99 1    
    62   30   31 2    
    63   30   32 1    
    64   32   33 1    
    65   32   34 1    
    66   32  100 1    
    67   33  101 1    
    68   33  102 1    
    69   33  103 1    
    70   34   35 am   BACKBONE|DICT|INTERRES
    71   34  104 1    
    72   35   36 2    
    73   37   38 2    
    74   37   39 am   BACKBONE|DICT|INTERRES
    75   39   40 1    
    76   39  105 1    
    77   40   41 1    
    78   40   42 1    
    79   40  106 1    
    80   41  107 1    
    81   41  108 1    
    82   41  109 1    
    83   42   43 2    
    84   42   44 am   BACKBONE|DICT|INTERRES
    85   44   45 1    
    86   44  110 1    
    87   45   46 1    
    88   45   47 1    
    89   45  111 1    
    90   46  112 1    
    91   46  113 1    
    92   46  114 1    
    93   47   48 2    
    94   47   49 am   BACKBONE|DICT|INTERRES
    95   49   50 1    
    96   49  115 1    
    97   50   51 1    
    98   50   52 1    
    99   50  116 1    
   100   51  117 1    
   101   51  118 1    
   102   51  119 1    
   103   52   53 2    
   104   52   54 am   BACKBONE|DICT|INTERRES
   105   54   55 1    
   106   54  120 1    
   107   55   56 1    
   108   55   57 1    
   109   55  121 1    
   110   56  122 1    
   111   56  123 1    
   112   56  124 1    
   113   57   58 2    
   114   57   59 am   BACKBONE|DICT|INTERRES
   115   59   60 1    
   116   59  125 1    
   117   60   61 1    
   118   60   62 1    
   119   60  126 1    
   120   61  127 1    
   121   61  128 1    
   122   61  129 1    
   123   62   63 2    
   124   62   64 am   BACKBONE|DICT|INTERRES
   125   64   65 1    
   126   64  130 1    
   127   65   66 1    
   128   65   69 1    
   129   65  131 1    
   130   66   67 am   BACKBONE|DICT|INTERRES
   131   66   68 2    
   132   67  132 1    
   133   67  133 1    
   134   69   70 1    
   135   69  134 1    
   136   69  135 1    
   137   70   71 1    
   138   71  136 1    
   139   71  137 1    
@<TRIPOS>SUBSTRUCTURE
     1 UNK         1 GROUP             0       ****    0 ROOT    
