@<TRIPOS>MOLECULE
3R137
137   139    1
SMALL
USER_CHARGES


@<TRIPOS>ATOM
      1 CA         27.6938   -5.1749   -8.6317 C.3       0 UNK        -0.2020 
      2 C          27.1760   -5.3197   -7.2089 C.2       0 UNK         0.4855 
      3 O          26.3554   -6.1992   -6.9452 O.2       0 UNK        -0.5197 
      4 N          27.6618   -4.4792   -6.2878 N.am      1 UNK        -0.4892 
      5 CA         27.2738   -4.4831   -4.8739 C.3       1 UNK         0.0835 
      6 C6         28.3257   -3.7715   -3.9887 C.3       12 UNK        -0.0855 
      7 S7         29.9327   -4.6393   -4.0120 S.3       12 UNK        -0.2931 
      8 C8         30.7101   -4.0642   -2.4692 C.3       12 UNK         0.0378 
      9 C9         30.9599   -2.5620   -2.4706 C.ar      12 UNK        -0.0802 
     10 C10        32.0936   -2.0279   -3.0908 C.ar      12 UNK        -0.0944 
     11 C11        32.3322   -0.6492   -3.0692 C.ar      12 UNK        -0.0787 
     12 C12        31.4235    0.1935   -2.4215 C.ar      12 UNK        -0.0862 
     13 C13        30.2791   -0.3233   -1.8053 C.ar      12 UNK        -0.0733 
     14 C14        30.0644   -1.7066   -1.8249 C.ar      12 UNK        -0.0832 
     15 C15        29.3257    0.6198   -1.0726 C.3       12 UNK         0.0240 
     16 S16        27.5762    0.0977   -1.1186 S.3       12 UNK        -0.2522 
     17 C17        26.9273    0.8989   -2.6203 C.3       12 UNK        -0.0967 
     18 CA         27.0077   -0.0008   -3.8984 C.3       5 UNK         0.0660 
     19 N          25.7389   -0.0164   -4.6227 N.am      5 UNK        -0.4015 
     20 C          25.1691    1.0250   -5.2455 C.2       4 UNK         0.4946 
     21 O          25.7218    2.1132   -5.4155 O.2       4 UNK        -0.5353 
     22 CA         23.7158    0.8362   -5.7137 C.3       4 UNK         0.0277 
     23 CB         23.6672    0.2433   -7.1273 C.3       4 UNK        -0.1981 
     24 N          22.9401   -0.0142   -4.8060 N.am      4 UNK        -0.4209 
     25 C          22.5996    0.3150   -3.5504 C.2       3 UNK         0.4942 
     26 O          22.8074    1.4213   -3.0510 O.2       3 UNK        -0.5208 
     27 CA         21.9222   -0.7758   -2.7005 C.3       3 UNK         0.0250 
     28 CB         20.3935   -0.6171   -2.7402 C.3       3 UNK        -0.1990 
     29 N          22.2786   -2.1401   -3.1064 N.am      3 UNK        -0.4232 
     30 C          23.4940   -2.6896   -2.9665 C.2       2 UNK         0.4993 
     31 O          24.4423   -2.1110   -2.4326 O.2       2 UNK        -0.5286 
     32 CA         23.6721   -4.1280   -3.4976 C.3       2 UNK         0.0209 
     33 CB         22.7731   -4.4448   -4.7165 C.3       2 UNK        -0.1931 
     34 N          25.0703   -4.4659   -3.8032 N.am      2 UNK        -0.4546 
     35 C          25.8694   -3.8667   -4.6993 C.2       1 UNK         0.5154 
     36 O          25.5423   -2.8792   -5.3649 O.2       1 UNK        -0.5181 
     37 C          28.1683    0.2992   -4.8750 C.2       5 UNK         0.5014 
     38 O          28.3198   -0.4135   -5.8728 O.2       5 UNK        -0.5248 
     39 N          28.9274    1.3695   -4.6079 N.am      6 UNK        -0.4434 
     40 CA         30.0465    1.8727   -5.4032 C.3       6 UNK         0.0363 
     41 CB         30.5898    3.1424   -4.7291 C.3       6 UNK        -0.1936 
     42 C          29.7071    2.1750   -6.8718 C.2       6 UNK         0.5081 
     43 O          30.5820    2.0323   -7.7263 O.2       6 UNK        -0.5248 
     44 N          28.4569    2.5797   -7.1425 N.am      7 UNK        -0.4718 
     45 CA         27.9729    2.9055   -8.4856 C.3       7 UNK         0.0273 
     46 CB         26.6465    3.6754   -8.3841 C.3       7 UNK        -0.1935 
     47 C          27.8103    1.6680   -9.3818 C.2       7 UNK         0.5018 
     48 O          28.0432    1.7686  -10.5866 O.2       7 UNK        -0.5186 
     49 N          27.4265    0.5298   -8.7866 N.am      8 UNK        -0.4240 
     50 CA         27.3113   -0.7514   -9.4856 C.3       8 UNK         0.0235 
     51 CB         26.2298   -1.6197   -8.8269 C.3       8 UNK        -0.2000 
     52 C          28.6509   -1.4934   -9.5209 C.2       8 UNK         0.4941 
     53 O          28.9875   -2.0829  -10.5477 O.2       8 UNK        -0.5273 
     54 N          29.3883   -1.4578   -8.4026 N.am      9 UNK        -0.4262 
     55 CA         30.6892   -2.1128   -8.2556 C.3       9 UNK         0.0264 
     56 CB         30.9833   -2.2810   -6.7604 C.3       9 UNK        -0.1955 
     57 C          31.8449   -1.4057   -8.9928 C.2       9 UNK         0.5031 
     58 O          32.8768   -2.0423   -9.2104 O.2       9 UNK        -0.5390 
     59 N          31.6485   -0.1347   -9.3800 N.am      10 UNK        -0.4204 
     60 CA         32.5818    0.7470  -10.0930 C.3       10 UNK         0.0237 
     61 CB         32.9088    0.2004  -11.4997 C.3       10 UNK        -0.1985 
     62 C          33.8300    1.0495   -9.2458 C.2       10 UNK         0.4970 
     63 O          34.9529    0.7340   -9.6457 O.2       10 UNK        -0.4914 
     64 N          33.5911    1.6427   -8.0745 N.am      11 UNK        -0.4285 
     65 CA         34.5915    1.9289   -7.0371 C.3       11 UNK         0.1007 
     66 C          34.2400    3.2244   -6.2545 C.2       11 UNK         0.5703 
     67 N          34.8014    3.4347   -5.0711 N.am      11 UNK        -0.7361 
     68 O          33.4963    4.0777   -6.7349 O.2       11 UNK        -0.4986 
     69 C69        34.9065    0.6759   -6.1626 C.3       12 UNK        -0.0947 
     70 S70        33.4128   -0.1677   -5.5467 S.3       12 UNK        -0.2240 
     71 C71        33.5714   -0.0722   -3.7427 C.3       12 UNK         0.0194 
     72 H72        28.1812   -6.0970   -8.9471 H         1 UNK         0.0906 
     73 H73        26.8693   -4.9770   -9.3157 H         1 UNK         0.0906 
     74 H74        28.4163   -4.3656   -8.7229 H         1 UNK         0.0906 
     75 H75        28.3085   -3.7532   -6.5564 H         1 UNK         0.3140 
     76 H76        27.2201   -5.5257   -4.5509 H         1 UNK         0.1085 
     77 H77        27.9773   -3.7091   -2.9559 H         1 UNK         0.0836 
     78 H78        28.4878   -2.7479   -4.3282 H         1 UNK         0.0836 
     79 H79        30.0862   -4.3511   -1.6212 H         1 UNK         0.0731 
     80 H80        31.6573   -4.5894   -2.3374 H         1 UNK         0.0731 
     81 H81        32.7900   -2.6846   -3.5943 H         1 UNK         0.1312 
     82 H82        31.6159    1.2557   -2.3867 H         1 UNK         0.1406 
     83 H83        29.2008   -2.1263   -1.3282 H         1 UNK         0.1631 
     84 H84        29.4117    1.6367   -1.4576 H         1 UNK         0.0717 
     85 H85        29.6378    0.6629   -0.0284 H         1 UNK         0.0717 
     86 H86        25.8782    1.0859   -2.3814 H         1 UNK         0.0934 
     87 H87        27.3367    1.9016   -2.7387 H         1 UNK         0.0934 
     88 H88        27.1459   -1.0328   -3.5778 H         1 UNK         0.0739 
     89 H89        25.2624   -0.9113   -4.6240 H         1 UNK         0.3093 
     90 H90        23.2500    1.8237   -5.7386 H         1 UNK         0.0818 
     91 H91        22.6546    0.2647   -7.5304 H         1 UNK         0.0819 
     92 H92        24.3013    0.8062   -7.8139 H         1 UNK         0.0819 
     93 H93        24.0054   -0.7929   -7.1298 H         1 UNK         0.0819 
     94 H94        22.7166   -0.9431   -5.1311 H         1 UNK         0.3041 
     95 H95        22.2537   -0.6358   -1.6692 H         1 UNK         0.0784 
     96 H96        20.0969    0.3816   -2.4159 H         1 UNK         0.0793 
     97 H97        19.9965   -0.7639   -3.7455 H         1 UNK         0.0793 
     98 H98        19.9025   -1.3292   -2.0765 H         1 UNK         0.0793 
     99 H99        21.5482   -2.6891   -3.5368 H         1 UNK         0.3024 
    100 H100       23.3716   -4.7864   -2.6807 H         1 UNK         0.1171 
    101 H101       22.9758   -5.4437   -5.1035 H         1 UNK         0.0786 
    102 H102       22.9310   -3.7394   -5.5335 H         1 UNK         0.0786 
    103 H103       21.7146   -4.4215   -4.4558 H         1 UNK         0.0786 
    104 H104       25.4472   -5.2395   -3.2732 H         1 UNK         0.2977 
    105 H105       28.7041    1.9040   -3.7832 H         1 UNK         0.3127 
    106 H106       30.8221    1.1068   -5.3952 H         1 UNK         0.0770 
    107 H107       29.8303    3.9231   -4.6700 H         1 UNK         0.0814 
    108 H108       31.4263    3.5549   -5.2898 H         1 UNK         0.0814 
    109 H109       30.9477    2.9483   -3.7200 H         1 UNK         0.0814 
    110 H110       27.7857    2.6391   -6.3859 H         1 UNK         0.2983 
    111 H111       28.7093    3.5589   -8.9594 H         1 UNK         0.0947 
    112 H112       26.2980    3.9813   -9.3716 H         1 UNK         0.0806 
    113 H113       26.7562    4.5797   -7.7854 H         1 UNK         0.0806 
    114 H114       25.8587    3.0695   -7.9356 H         1 UNK         0.0806 
    115 H115       27.3109    0.5231   -7.7815 H         1 UNK         0.3000 
    116 H116       27.0078   -0.5762  -10.5204 H         1 UNK         0.0850 
    117 H117       26.2192   -2.6238   -9.2509 H         1 UNK         0.0810 
    118 H118       25.2418   -1.1994   -9.0042 H         1 UNK         0.0810 
    119 H119       26.3787   -1.7184   -7.7505 H         1 UNK         0.0810 
    120 H120       29.0219   -0.9833   -7.5801 H         1 UNK         0.3040 
    121 H121       30.6169   -3.1126   -8.6891 H         1 UNK         0.0766 
    122 H122       31.9784   -2.6941   -6.5907 H         1 UNK         0.0812 
    123 H123       30.2700   -2.9602   -6.3006 H         1 UNK         0.0812 
    124 H124       30.9178   -1.3331   -6.2275 H         1 UNK         0.0812 
    125 H125       30.8028    0.3200   -9.0578 H         1 UNK         0.3205 
    126 H126       32.0610    1.6966  -10.2273 H         1 UNK         0.0754 
    127 H127       33.5181    0.9109  -12.0595 H         1 UNK         0.0769 
    128 H128       32.0005    0.0258  -12.0765 H         1 UNK         0.0769 
    129 H129       33.4637   -0.7372  -11.4568 H         1 UNK         0.0769 
    130 H130       32.6369    1.8991   -7.8389 H         1 UNK         0.2981 
    131 H131       35.5164    2.1961   -7.5511 H         1 UNK         0.0541 
    132 H132       35.4398    2.7673   -4.6697 H         1 UNK         0.3459 
    133 H133       34.5906    4.2871   -4.5766 H         1 UNK         0.3459 
    134 H134       35.5791    0.9086   -5.3366 H         1 UNK         0.0612 
    135 H135       35.4463   -0.0504   -6.7719 H         1 UNK         0.0612 
    136 H136       34.4563   -0.6254   -3.4251 H         1 UNK         0.0624 
    137 H137       33.7243    0.9677   -3.4499 H         1 UNK         0.0624 
@<TRIPOS>BOND
     1    1    2 1    
     2    1   72 1    
     3    1   73 1    
     4    1   74 1    
     5    2    3 2    
     6    2    4 am   BACKBONE|DICT|INTERRES
     7    4    5 1    
     8    4   75 1    
     9    5    6 1    
    10    5   35 1    
    11    5   76 1    
    12    6    7 1    
    13    6   77 1    
    14    6   78 1    
    15    7    8 1    
    16    8    9 1    
    17    8   79 1    
    18    8   80 1    
    19    9   10 ar   
    20    9   14 ar   
    21   10   11 ar   
    22   10   81 1    
    23   11   12 ar   
    24   11   71 1    
    25   12   13 ar   
    26   12   82 1    
    27   13   14 ar   
    28   13   15 1    
    29   14   83 1    
    30   15   16 1    
    31   15   84 1    
    32   15   85 1    
    33   16   17 1    
    34   17   18 1    
    35   17   86 1    
    36   17   87 1    
    37   18   19 1    
    38   18   37 1    
    39   18   88 1    
    40   19   20 am   BACKBONE|DICT|INTERRES
    41   19   89 1    
    42   20   21 2    
    43   20   22 1    
    44   22   23 1    
    45   22   24 1    
    46   22   90 1    
    47   23   91 1    
    48   23   92 1    
    49   23   93 1    
    50   24   25 am   BACKBONE|DICT|INTERRES
    51   24   94 1    
    52   25   26 2    
    53   25   27 1    
    54   27   28 1    
    55   27   29 1    
    56   27   95 1    
    57   28   96 1    
    58   28   97 1    
    59   28   98 1    
    60   29   30 am   BACKBONE|DICT|INTERRES
    61   29   99 1    
    62   30   31 2    
    63   30   32 1    
    64   32   33 1    
    65   32   34 1    
    66   32  100 1    
    67   33  101 1    
    68   33  102 1    
    69   33  103 1    
    70   34   35 am   BACKBONE|DICT|INTERRES
    71   34  104 1    
    72   35   36 2    
    73   37   38 2    
    74   37   39 am   BACKBONE|DICT|INTERRES
    75   39   40 1    
    76   39  105 1    
    77   40   41 1    
    78   40   42 1    
    79   40  106 1    
    80   41  107 1    
    81   41  108 1    
    82   41  109 1    
    83   42   43 2    
    84   42   44 am   BACKBONE|DICT|INTERRES
    85   44   45 1    
    86   44  110 1    
    87   45   46 1    
    88   45   47 1    
    89   45  111 1    
    90   46  112 1    
    91   46  113 1    
    92   46  114 1    
    93   47   48 2    
    94   47   49 am   BACKBONE|DICT|INTERRES
    95   49   50 1    
    96   49  115 1    
    97   50   51 1    
    98   50   52 1    
    99   50  116 1    
   100   51  117 1    
   101   51  118 1    
   102   51  119 1    
   103   52   53 2    
   104   52   54 am   BACKBONE|DICT|INTERRES
   105   54   55 1    
   106   54  120 1    
   107   55   56 1    
   108   55   57 1    
   109   55  121 1    
   110   56  122 1    
   111   56  123 1    
   112   56  124 1    
   113   57   58 2    
   114   57   59 am   BACKBONE|DICT|INTERRES
   115   59   60 1    
   116   59  125 1    
   117   60   61 1    
   118   60   62 1    
   119   60  126 1    
   120   61  127 1    
   121   61  128 1    
   122   61  129 1    
   123   62   63 2    
   124   62   64 am   BACKBONE|DICT|INTERRES
   125   64   65 1    
   126   64  130 1    
   127   65   66 1    
   128   65   69 1    
   129   65  131 1    
   130   66   67 am   BACKBONE|DICT|INTERRES
   131   66   68 2    
   132   67  132 1    
   133   67  133 1    
   134   69   70 1    
   135   69  134 1    
   136   69  135 1    
   137   70   71 1    
   138   71  136 1    
   139   71  137 1    
@<TRIPOS>SUBSTRUCTURE
     1 UNK         1 GROUP             0       ****    0 ROOT    
