@<TRIPOS>MOLECULE
3R137
137   139    1
SMALL
USER_CHARGES


@<TRIPOS>ATOM
      1 CA         27.6266    0.7654    3.8359 C.3       0 UNK        -0.2020 
      2 C          28.2563    0.3789    2.5059 C.2       0 UNK         0.4855 
      3 O          29.2005    1.0324    2.0619 O.2       0 UNK        -0.5197 
      4 N          27.7415   -0.6755    1.8668 N.am      1 UNK        -0.4892 
      5 CA         28.1779   -1.1840    0.5681 C.3       1 UNK         0.0835 
      6 C6         29.4431   -2.0713    0.6953 C.3       12 UNK        -0.0855 
      7 S7         30.3338   -2.2208   -0.8864 S.3       12 UNK        -0.2931 
      8 C8         30.4026   -4.0267   -1.0887 C.3       12 UNK         0.0378 
      9 C9         30.7521   -4.3773   -2.5241 C.ar      12 UNK        -0.0802 
     10 C10        32.0774   -4.3328   -2.9625 C.ar      12 UNK        -0.0944 
     11 C11        32.3870   -4.5857   -4.3019 C.ar      12 UNK        -0.0787 
     12 C12        31.3627   -4.9143   -5.1973 C.ar      12 UNK        -0.0862 
     13 C13        30.0317   -4.9605   -4.7687 C.ar      12 UNK        -0.0733 
     14 C14        29.7389   -4.7042   -3.4271 C.ar      12 UNK        -0.0832 
     15 C15        28.9020   -5.2783   -5.7431 C.3       12 UNK         0.0240 
     16 S16        28.8957   -4.2036   -7.2169 S.3       12 UNK        -0.2522 
     17 C17        28.8438   -2.5226   -6.5083 C.3       12 UNK        -0.0967 
     18 CA         27.9161   -1.5990   -7.3353 C.3       5 UNK         0.0660 
     19 N          26.4924   -1.8672   -7.1099 N.am      5 UNK        -0.4015 
     20 C          25.5080   -1.3985   -7.8910 C.2       4 UNK         0.4946 
     21 O          25.6929   -0.6929   -8.8830 O.2       4 UNK        -0.5353 
     22 CA         24.0710   -1.7411   -7.4684 C.3       4 UNK         0.0277 
     23 CB         23.7631   -3.2282   -7.7105 C.3       4 UNK        -0.1981 
     24 N          23.7953   -1.3946   -6.0719 N.am      4 UNK        -0.4209 
     25 C          23.8251   -0.1473   -5.5798 C.2       3 UNK         0.4942 
     26 O          24.0858    0.8497   -6.2490 O.2       3 UNK        -0.5208 
     27 CA         23.5473    0.0218   -4.0788 C.3       3 UNK         0.0250 
     28 CB         22.0369    0.1445   -3.8213 C.3       3 UNK        -0.1990 
     29 N          24.1042   -1.0462   -3.2447 N.am      3 UNK        -0.4232 
     30 C          25.4046   -1.3567   -3.1627 C.2       2 UNK         0.4993 
     31 O          26.2909   -0.8376   -3.8487 O.2       2 UNK        -0.5286 
     32 CA         25.7788   -2.4525   -2.1636 C.3       2 UNK         0.0209 
     33 CB         26.1304   -3.7485   -2.9089 C.3       2 UNK        -0.1931 
     34 N          26.9307   -1.9823   -1.3953 N.am      2 UNK        -0.4546 
     35 C          26.9789   -1.9199   -0.0594 C.2       1 UNK         0.5154 
     36 O          26.1111   -2.3967    0.6800 O.2       1 UNK        -0.5181 
     37 C          28.2655   -0.1148   -7.1248 C.2       5 UNK         0.5014 
     38 O          29.0933    0.4072   -7.8745 O.2       5 UNK        -0.5248 
     39 N          27.6190    0.5436   -6.1503 N.am      6 UNK        -0.4434 
     40 CA         27.7476    1.9814   -5.9081 C.3       6 UNK         0.0363 
     41 CB         27.0515    2.3546   -4.5898 C.3       6 UNK        -0.1936 
     42 C          27.2106    2.8289   -7.0748 C.2       6 UNK         0.5081 
     43 O          27.9125    3.7302   -7.5324 O.2       6 UNK        -0.5248 
     44 N          25.9981    2.5147   -7.5559 N.am      7 UNK        -0.4718 
     45 CA         25.3462    3.1978   -8.6792 C.3       7 UNK         0.0273 
     46 CB         23.8802    2.7494   -8.7852 C.3       7 UNK        -0.1935 
     47 C          26.0690    2.9848  -10.0178 C.2       7 UNK         0.5018 
     48 O          26.1762    3.9286  -10.8017 O.2       7 UNK        -0.5186 
     49 N          26.5711    1.7633  -10.2469 N.am      8 UNK        -0.4240 
     50 CA         27.3802    1.4111  -11.4168 C.3       8 UNK         0.0235 
     51 CB         27.4411   -0.1206  -11.5404 C.3       8 UNK        -0.2000 
     52 C          28.8061    1.9917  -11.3797 C.2       8 UNK         0.4941 
     53 O          29.4623    2.0094  -12.4218 O.2       8 UNK        -0.5273 
     54 N          29.2691    2.4124  -10.1906 N.am      9 UNK        -0.4262 
     55 CA         30.6429    2.8108   -9.8573 C.3       9 UNK         0.0264 
     56 CB         31.0348    4.1197  -10.5746 C.3       9 UNK        -0.1955 
     57 C          31.6444    1.6615  -10.0921 C.2       9 UNK         0.5031 
     58 O          32.7536    1.8879  -10.5801 O.2       9 UNK        -0.5390 
     59 N          31.2149    0.4392   -9.7533 N.am      10 UNK        -0.4204 
     60 CA         31.9586   -0.8043   -9.9584 C.3       10 UNK         0.0237 
     61 CB         30.9542   -1.9554  -10.1359 C.3       10 UNK        -0.1985 
     62 C          32.9282   -1.1160   -8.8077 C.2       10 UNK         0.4970 
     63 O          33.7942   -1.9758   -8.9735 O.2       10 UNK        -0.4914 
     64 N          32.7618   -0.4383   -7.6678 N.am      11 UNK        -0.4285 
     65 CA         33.5411   -0.6233   -6.4428 C.3       11 UNK         0.1007 
     66 C          33.5392    0.6745   -5.5914 C.2       11 UNK         0.5703 
     67 N          34.3418    0.7277   -4.5382 N.am      11 UNK        -0.7361 
     68 O          32.8187    1.6319   -5.8725 O.2       11 UNK        -0.4986 
     69 C69        33.0549   -1.8710   -5.6553 C.3       12 UNK        -0.0947 
     70 S70        34.3874   -2.7118   -4.7360 S.3       12 UNK        -0.2240 
     71 C71        33.8215   -4.4453   -4.7927 C.3       12 UNK         0.0194 
     72 H72        27.2339    1.7807    3.7845 H         1 UNK         0.0906 
     73 H73        28.3730    0.7283    4.6291 H         1 UNK         0.0906 
     74 H74        26.8087    0.0987    4.1092 H         1 UNK         0.0906 
     75 H75        26.9330   -1.1655    2.2341 H         1 UNK         0.3140 
     76 H76        28.4023   -0.3217   -0.0649 H         1 UNK         0.1085 
     77 H77        29.1982   -3.0526    1.1064 H         1 UNK         0.0836 
     78 H78        30.1444   -1.6249    1.4021 H         1 UNK         0.0836 
     79 H79        31.1430   -4.4449   -0.4050 H         1 UNK         0.0731 
     80 H80        29.4413   -4.4669   -0.8179 H         1 UNK         0.0731 
     81 H81        32.8633   -4.0581   -2.2720 H         1 UNK         0.1312 
     82 H82        31.5945   -5.1015   -6.2370 H         1 UNK         0.1406 
     83 H83        28.7184   -4.7456   -3.0805 H         1 UNK         0.1631 
     84 H84        27.9297   -5.2011   -5.2546 H         1 UNK         0.0717 
     85 H85        28.9997   -6.3151   -6.0671 H         1 UNK         0.0717 
     86 H86        28.5313   -2.5533   -5.4627 H         1 UNK         0.0934 
     87 H87        29.8715   -2.1520   -6.5061 H         1 UNK         0.0934 
     88 H88        28.1074   -1.7952   -8.3927 H         1 UNK         0.0739 
     89 H89        26.2547   -2.4156   -6.2978 H         1 UNK         0.3093 
     90 H90        23.3979   -1.1504   -8.0939 H         1 UNK         0.0818 
     91 H91        23.9623   -3.5027   -8.7474 H         1 UNK         0.0819 
     92 H92        24.3673   -3.8809   -7.0792 H         1 UNK         0.0819 
     93 H93        22.7140   -3.4516   -7.5156 H         1 UNK         0.0819 
     94 H94        23.5674   -2.1515   -5.4443 H         1 UNK         0.3041 
     95 H95        24.0190    0.9554   -3.7656 H         1 UNK         0.0784 
     96 H96        21.6038    0.9481   -4.4192 H         1 UNK         0.0793 
     97 H97        21.5055   -0.7734   -4.0761 H         1 UNK         0.0793 
     98 H98        21.8291    0.3749   -2.7762 H         1 UNK         0.0793 
     99 H99        23.4487   -1.5368   -2.6529 H         1 UNK         0.3024 
    100 H100       24.9288   -2.6450   -1.5046 H         1 UNK         0.1171 
    101 H101       25.2552   -4.1539   -3.4182 H         1 UNK         0.0786 
    102 H102       26.4891   -4.5155   -2.2226 H         1 UNK         0.0786 
    103 H103       26.8942   -3.5770   -3.6671 H         1 UNK         0.0786 
    104 H104       27.6601   -1.5407   -1.9408 H         1 UNK         0.2977 
    105 H105       26.9929    0.0321   -5.5349 H         1 UNK         0.3127 
    106 H106       28.8117    2.2033   -5.8007 H         1 UNK         0.0770 
    107 H107       27.4729    1.8032   -3.7491 H         1 UNK         0.0814 
    108 H108       27.1693    3.4172   -4.3741 H         1 UNK         0.0814 
    109 H109       25.9825    2.1451   -4.6238 H         1 UNK         0.0814 
    110 H110       25.4583    1.7791   -7.1031 H         1 UNK         0.2983 
    111 H111       25.3590    4.2693   -8.4680 H         1 UNK         0.0947 
    112 H112       23.7997    1.6743   -8.9526 H         1 UNK         0.0806 
    113 H113       23.3752    3.2495   -9.6127 H         1 UNK         0.0806 
    114 H114       23.3270    2.9880   -7.8767 H         1 UNK         0.0806 
    115 H115       26.3741    1.0172   -9.5837 H         1 UNK         0.3000 
    116 H116       26.8882    1.8082  -12.3074 H         1 UNK         0.0850 
    117 H117       28.0123   -0.4225  -12.4193 H         1 UNK         0.0810 
    118 H118       26.4442   -0.5506  -11.6385 H         1 UNK         0.0810 
    119 H119       27.9164   -0.5744  -10.6699 H         1 UNK         0.0810 
    120 H120       28.6420    2.3462   -9.3986 H         1 UNK         0.3040 
    121 H121       30.6492    3.0065   -8.7837 H         1 UNK         0.0766 
    122 H122       31.1094    3.9856  -11.6540 H         1 UNK         0.0812 
    123 H123       32.0031    4.4802  -10.2252 H         1 UNK         0.0812 
    124 H124       30.3072    4.9083  -10.3831 H         1 UNK         0.0812 
    125 H125       30.3206    0.3684   -9.2699 H         1 UNK         0.3205 
    126 H126       32.5480   -0.7201  -10.8740 H         1 UNK         0.0754 
    127 H127       31.4683   -2.8934  -10.3500 H         1 UNK         0.0769 
    128 H128       30.2723   -1.7643  -10.9648 H         1 UNK         0.0769 
    129 H129       30.3577   -2.1113   -9.2370 H         1 UNK         0.0769 
    130 H130       32.0643    0.2921   -7.6172 H         1 UNK         0.2981 
    131 H131       34.5770   -0.7733   -6.7537 H         1 UNK         0.0541 
    132 H132       34.3564    1.5604   -3.9708 H         1 UNK         0.3459 
    133 H133       34.9136   -0.0649   -4.2888 H         1 UNK         0.3459 
    134 H134       32.6362   -2.6025   -6.3477 H         1 UNK         0.0612 
    135 H135       32.2430   -1.6227   -4.9688 H         1 UNK         0.0612 
    136 H136       34.4799   -5.0564   -4.1740 H         1 UNK         0.0624 
    137 H137       33.9215   -4.8170   -5.8137 H         1 UNK         0.0624 
@<TRIPOS>BOND
     1    1    2 1    
     2    1   72 1    
     3    1   73 1    
     4    1   74 1    
     5    2    3 2    
     6    2    4 am   BACKBONE|DICT|INTERRES
     7    4    5 1    
     8    4   75 1    
     9    5    6 1    
    10    5   35 1    
    11    5   76 1    
    12    6    7 1    
    13    6   77 1    
    14    6   78 1    
    15    7    8 1    
    16    8    9 1    
    17    8   79 1    
    18    8   80 1    
    19    9   10 ar   
    20    9   14 ar   
    21   10   11 ar   
    22   10   81 1    
    23   11   12 ar   
    24   11   71 1    
    25   12   13 ar   
    26   12   82 1    
    27   13   14 ar   
    28   13   15 1    
    29   14   83 1    
    30   15   16 1    
    31   15   84 1    
    32   15   85 1    
    33   16   17 1    
    34   17   18 1    
    35   17   86 1    
    36   17   87 1    
    37   18   19 1    
    38   18   37 1    
    39   18   88 1    
    40   19   20 am   BACKBONE|DICT|INTERRES
    41   19   89 1    
    42   20   21 2    
    43   20   22 1    
    44   22   23 1    
    45   22   24 1    
    46   22   90 1    
    47   23   91 1    
    48   23   92 1    
    49   23   93 1    
    50   24   25 am   BACKBONE|DICT|INTERRES
    51   24   94 1    
    52   25   26 2    
    53   25   27 1    
    54   27   28 1    
    55   27   29 1    
    56   27   95 1    
    57   28   96 1    
    58   28   97 1    
    59   28   98 1    
    60   29   30 am   BACKBONE|DICT|INTERRES
    61   29   99 1    
    62   30   31 2    
    63   30   32 1    
    64   32   33 1    
    65   32   34 1    
    66   32  100 1    
    67   33  101 1    
    68   33  102 1    
    69   33  103 1    
    70   34   35 am   BACKBONE|DICT|INTERRES
    71   34  104 1    
    72   35   36 2    
    73   37   38 2    
    74   37   39 am   BACKBONE|DICT|INTERRES
    75   39   40 1    
    76   39  105 1    
    77   40   41 1    
    78   40   42 1    
    79   40  106 1    
    80   41  107 1    
    81   41  108 1    
    82   41  109 1    
    83   42   43 2    
    84   42   44 am   BACKBONE|DICT|INTERRES
    85   44   45 1    
    86   44  110 1    
    87   45   46 1    
    88   45   47 1    
    89   45  111 1    
    90   46  112 1    
    91   46  113 1    
    92   46  114 1    
    93   47   48 2    
    94   47   49 am   BACKBONE|DICT|INTERRES
    95   49   50 1    
    96   49  115 1    
    97   50   51 1    
    98   50   52 1    
    99   50  116 1    
   100   51  117 1    
   101   51  118 1    
   102   51  119 1    
   103   52   53 2    
   104   52   54 am   BACKBONE|DICT|INTERRES
   105   54   55 1    
   106   54  120 1    
   107   55   56 1    
   108   55   57 1    
   109   55  121 1    
   110   56  122 1    
   111   56  123 1    
   112   56  124 1    
   113   57   58 2    
   114   57   59 am   BACKBONE|DICT|INTERRES
   115   59   60 1    
   116   59  125 1    
   117   60   61 1    
   118   60   62 1    
   119   60  126 1    
   120   61  127 1    
   121   61  128 1    
   122   61  129 1    
   123   62   63 2    
   124   62   64 am   BACKBONE|DICT|INTERRES
   125   64   65 1    
   126   64  130 1    
   127   65   66 1    
   128   65   69 1    
   129   65  131 1    
   130   66   67 am   BACKBONE|DICT|INTERRES
   131   66   68 2    
   132   67  132 1    
   133   67  133 1    
   134   69   70 1    
   135   69  134 1    
   136   69  135 1    
   137   70   71 1    
   138   71  136 1    
   139   71  137 1    
@<TRIPOS>SUBSTRUCTURE
     1 UNK         1 GROUP             0       ****    0 ROOT    
