@<TRIPOS>MOLECULE
3R137
137   139    1
SMALL
USER_CHARGES


@<TRIPOS>ATOM
      1 CA         22.6369   -4.8756   -1.8401 C.3       0 UNK        -0.2020 
      2 C          23.8822   -4.1687   -1.3268 C.2       0 UNK         0.4855 
      3 O          23.7715   -3.1243   -0.6836 O.2       0 UNK        -0.5197 
      4 N          25.0679   -4.7287   -1.6037 N.am      1 UNK        -0.4892 
      5 CA         26.3661   -4.1403   -1.2550 C.3       1 UNK         0.0835 
      6 C6         27.5085   -5.1827   -1.3676 C.3       12 UNK        -0.0855 
      7 S7         28.9888   -4.7076   -0.4008 S.3       12 UNK        -0.2931 
      8 C8         30.3720   -5.2160   -1.4760 C.3       12 UNK         0.0378 
      9 C9         30.4250   -4.4356   -2.7833 C.ar      12 UNK        -0.0802 
     10 C10        30.9310   -3.1320   -2.8176 C.ar      12 UNK        -0.0944 
     11 C11        30.9790   -2.4150   -4.0194 C.ar      12 UNK        -0.0787 
     12 C12        30.5159   -3.0228   -5.1918 C.ar      12 UNK        -0.0862 
     13 C13        30.0052   -4.3254   -5.1720 C.ar      12 UNK        -0.0733 
     14 C14        29.9760   -5.0279   -3.9657 C.ar      12 UNK        -0.0832 
     15 C15        29.4579   -4.9858   -6.4348 C.3       12 UNK         0.0240 
     16 S16        28.3228   -3.9406   -7.4129 S.3       12 UNK        -0.2522 
     17 C17        27.2514   -3.1611   -6.1514 C.3       12 UNK        -0.0967 
     18 CA         26.5922   -1.8363   -6.6123 C.3       5 UNK         0.0660 
     19 N          25.5749   -1.4348   -5.6418 N.am      5 UNK        -0.4015 
     20 C          24.4492   -0.7800   -5.9521 C.2       4 UNK         0.4946 
     21 O          24.2471   -0.2443   -7.0424 O.2       4 UNK        -0.5353 
     22 CA         23.3412   -0.7643   -4.8867 C.3       4 UNK         0.0277 
     23 CB         22.6475   -2.1357   -4.8147 C.3       4 UNK        -0.1981 
     24 N          23.8741   -0.4279   -3.5685 N.am      4 UNK        -0.4209 
     25 C          23.7429    0.7686   -2.9797 C.2       3 UNK         0.4942 
     26 O          23.0540    1.6860   -3.4283 O.2       3 UNK        -0.5208 
     27 CA         24.5309    0.9996   -1.6748 C.3       3 UNK         0.0250 
     28 CB         23.6390    0.7263   -0.4530 C.3       3 UNK        -0.1990 
     29 N          25.7613    0.2079   -1.5612 N.am      3 UNK        -0.4232 
     30 C          26.7727    0.2212   -2.4421 C.2       2 UNK         0.4993 
     31 O          26.7796    0.9021   -3.4640 O.2       2 UNK        -0.5286 
     32 CA         27.9389   -0.7462   -2.1901 C.3       2 UNK         0.0209 
     33 CB         29.0188   -0.0775   -1.3251 C.3       2 UNK        -0.1931 
     34 N          27.5278   -2.0081   -1.5716 N.am      2 UNK        -0.4546 
     35 C          26.6439   -2.8707   -2.0900 C.2       1 UNK         0.5154 
     36 O          26.0553   -2.6813   -3.1610 O.2       1 UNK        -0.5181 
     37 C          27.6257   -0.7348   -6.9448 C.2       5 UNK         0.5014 
     38 O          28.2007   -0.7954   -8.0334 O.2       5 UNK        -0.5248 
     39 N          27.8673    0.2506   -6.0607 N.am      6 UNK        -0.4434 
     40 CA         28.9606    1.2289   -6.2153 C.3       6 UNK         0.0363 
     41 CB         29.0192    2.1915   -5.0193 C.3       6 UNK        -0.1936 
     42 C          28.9317    2.0419   -7.5169 C.2       6 UNK         0.5081 
     43 O          29.9961    2.3174   -8.0695 O.2       6 UNK        -0.5248 
     44 N          27.7270    2.3806   -7.9924 N.am      7 UNK        -0.4718 
     45 CA         27.5064    3.1011   -9.2482 C.3       7 UNK         0.0273 
     46 CB         26.0675    3.6416   -9.2698 C.3       7 UNK        -0.1935 
     47 C          27.7787    2.2497  -10.5019 C.2       7 UNK         0.5018 
     48 O          28.0949    2.8155  -11.5488 O.2       7 UNK        -0.5186 
     49 N          27.6465    0.9214  -10.3836 N.am      8 UNK        -0.4240 
     50 CA         27.9007   -0.0351  -11.4611 C.3       8 UNK         0.0235 
     51 CB         26.9726   -1.2514  -11.3001 C.3       8 UNK        -0.2000 
     52 C          29.3719   -0.4704  -11.4750 C.2       8 UNK         0.4941 
     53 O          29.9851   -0.5046  -12.5422 O.2       8 UNK        -0.5273 
     54 N          29.9110   -0.7891  -10.2908 N.am      9 UNK        -0.4262 
     55 CA         31.2912   -1.2377  -10.0965 C.3       9 UNK         0.0264 
     56 CB         31.3886   -1.9451   -8.7393 C.3       9 UNK        -0.1955 
     57 C          32.3316   -0.1077  -10.1715 C.2       9 UNK         0.5031 
     58 O          33.5076   -0.4038  -10.3880 O.2       9 UNK        -0.5390 
     59 N          31.8928    1.1442   -9.9697 N.am      10 UNK        -0.4204 
     60 CA         32.7006    2.3617   -9.8441 C.3       10 UNK         0.0237 
     61 CB         33.4699    2.6728  -11.1467 C.3       10 UNK        -0.1985 
     62 C          33.5957    2.3149   -8.5912 C.2       10 UNK         0.4970 
     63 O          34.8041    2.5404   -8.6843 O.2       10 UNK        -0.4914 
     64 N          32.9778    2.0172   -7.4385 N.am      11 UNK        -0.4285 
     65 CA         33.6462    1.9874   -6.1239 C.3       11 UNK         0.1007 
     66 C          34.0669    3.3888   -5.5884 C.2       11 UNK         0.5703 
     67 N          33.5354    4.4896   -6.1085 N.am      11 UNK        -0.7361 
     68 O          34.8963    3.4765   -4.6861 O.2       11 UNK        -0.4986 
     69 C69        32.8178    1.2318   -5.0502 C.3       12 UNK        -0.0947 
     70 S70        32.5307   -0.5265   -5.4322 S.3       12 UNK        -0.2240 
     71 C71        31.4632   -0.9666   -4.0186 C.3       12 UNK         0.0194 
     72 H72        22.8825   -5.7456   -2.4487 H         1 UNK         0.0906 
     73 H73        22.0230   -5.2077   -1.0033 H         1 UNK         0.0906 
     74 H74        22.0428   -4.1942   -2.4483 H         1 UNK         0.0906 
     75 H75        25.1003   -5.5686   -2.1637 H         1 UNK         0.3140 
     76 H76        26.2928   -3.8307   -0.2096 H         1 UNK         0.1085 
     77 H77        27.7601   -5.3673   -2.4118 H         1 UNK         0.0836 
     78 H78        27.1746   -6.1429   -0.9709 H         1 UNK         0.0836 
     79 H79        31.3076   -5.0701   -0.9340 H         1 UNK         0.0731 
     80 H80        30.2996   -6.2879   -1.6675 H         1 UNK         0.0731 
     81 H81        31.2727   -2.6727   -1.9002 H         1 UNK         0.1312 
     82 H82        30.5192   -2.4707   -6.1185 H         1 UNK         0.1406 
     83 H83        29.5878   -6.0374   -3.9429 H         1 UNK         0.1631 
     84 H84        28.9277   -5.9059   -6.1845 H         1 UNK         0.0717 
     85 H85        30.2957   -5.2781   -7.0689 H         1 UNK         0.0717 
     86 H86        26.4797   -3.8899   -5.8972 H         1 UNK         0.0934 
     87 H87        27.7989   -2.9859   -5.2264 H         1 UNK         0.0934 
     88 H88        26.0772   -2.0532   -7.5513 H         1 UNK         0.0739 
     89 H89        25.6714   -1.8472   -4.7156 H         1 UNK         0.3093 
     90 H90        22.5955   -0.0290   -5.1965 H         1 UNK         0.0818 
     91 H91        21.8124   -2.1172   -4.1143 H         1 UNK         0.0819 
     92 H92        22.2470   -2.4227   -5.7880 H         1 UNK         0.0819 
     93 H93        23.3321   -2.9235   -4.4970 H         1 UNK         0.0819 
     94 H94        24.4686   -1.1171   -3.1248 H         1 UNK         0.3041 
     95 H95        24.8223    2.0518   -1.6586 H         1 UNK         0.0784 
     96 H96        22.7249    1.3205   -0.4957 H         1 UNK         0.0793 
     97 H97        23.3436   -0.3224   -0.3968 H         1 UNK         0.0793 
     98 H98        24.1469    0.9836    0.4766 H         1 UNK         0.0793 
     99 H99        25.8320   -0.4085   -0.7645 H         1 UNK         0.3024 
    100 H100       28.3734   -0.9900   -3.1618 H         1 UNK         0.1171 
    101 H101       29.3620    0.8545   -1.7757 H         1 UNK         0.0786 
    102 H102       29.8916   -0.7196   -1.2105 H         1 UNK         0.0786 
    103 H103       28.6468    0.1617   -0.3281 H         1 UNK         0.0786 
    104 H104       27.9950   -2.2645   -0.7125 H         1 UNK         0.2977 
    105 H105       27.3263    0.3118   -5.2012 H         1 UNK         0.3127 
    106 H106       29.8887    0.6560   -6.2319 H         1 UNK         0.0770 
    107 H107       28.0792    2.7290   -4.8902 H         1 UNK         0.0814 
    108 H108       29.8000    2.9417   -5.1525 H         1 UNK         0.0814 
    109 H109       29.2386    1.6657   -4.0920 H         1 UNK         0.0814 
    110 H110       26.9092    2.0987   -7.4705 H         1 UNK         0.2983 
    111 H111       28.1924    3.9508   -9.2781 H         1 UNK         0.0947 
    112 H112       25.8760    4.2057  -10.1838 H         1 UNK         0.0806 
    113 H113       25.8834    4.3143   -8.4319 H         1 UNK         0.0806 
    114 H114       25.3326    2.8367   -9.2234 H         1 UNK         0.0806 
    115 H115       27.4599    0.5319   -9.4669 H         1 UNK         0.3000 
    116 H116       27.6776    0.4317  -12.4233 H         1 UNK         0.0850 
    117 H117       27.1321   -1.9710  -12.1043 H         1 UNK         0.0810 
    118 H118       25.9240   -0.9554  -11.3338 H         1 UNK         0.0810 
    119 H119       27.1416   -1.7744  -10.3578 H         1 UNK         0.0810 
    120 H120       29.3156   -0.7706   -9.4628 H         1 UNK         0.3040 
    121 H121       31.5347   -1.9603  -10.8783 H         1 UNK         0.0766 
    122 H122       32.4078   -2.2743   -8.5318 H         1 UNK         0.0812 
    123 H123       30.7497   -2.8266   -8.7061 H         1 UNK         0.0812 
    124 H124       31.0879   -1.2764   -7.9333 H         1 UNK         0.0812 
    125 H125       30.9151    1.2628   -9.7318 H         1 UNK         0.3205 
    126 H126       31.9964    3.1797   -9.6851 H         1 UNK         0.0754 
    127 H127       33.9610    3.6446  -11.0839 H         1 UNK         0.0769 
    128 H128       32.7983    2.7038  -12.0047 H         1 UNK         0.0769 
    129 H129       34.2442    1.9336  -11.3534 H         1 UNK         0.0769 
    130 H130       31.9739    1.8848   -7.4489 H         1 UNK         0.2981 
    131 H131       34.5778    1.4336   -6.2557 H         1 UNK         0.0541 
    132 H132       32.8508    4.4306   -6.8446 H         1 UNK         0.3459 
    133 H133       33.8208    5.3889   -5.7546 H         1 UNK         0.3459 
    134 H134       31.8561    1.7227   -4.9036 H         1 UNK         0.0612 
    135 H135       33.3262    1.2660   -4.0845 H         1 UNK         0.0612 
    136 H136       32.0091   -0.7523   -3.0985 H         1 UNK         0.0624 
    137 H137       30.5902   -0.3155   -4.0204 H         1 UNK         0.0624 
@<TRIPOS>BOND
     1    1    2 1    
     2    1   72 1    
     3    1   73 1    
     4    1   74 1    
     5    2    3 2    
     6    2    4 am   BACKBONE|DICT|INTERRES
     7    4    5 1    
     8    4   75 1    
     9    5    6 1    
    10    5   35 1    
    11    5   76 1    
    12    6    7 1    
    13    6   77 1    
    14    6   78 1    
    15    7    8 1    
    16    8    9 1    
    17    8   79 1    
    18    8   80 1    
    19    9   10 ar   
    20    9   14 ar   
    21   10   11 ar   
    22   10   81 1    
    23   11   12 ar   
    24   11   71 1    
    25   12   13 ar   
    26   12   82 1    
    27   13   14 ar   
    28   13   15 1    
    29   14   83 1    
    30   15   16 1    
    31   15   84 1    
    32   15   85 1    
    33   16   17 1    
    34   17   18 1    
    35   17   86 1    
    36   17   87 1    
    37   18   19 1    
    38   18   37 1    
    39   18   88 1    
    40   19   20 am   BACKBONE|DICT|INTERRES
    41   19   89 1    
    42   20   21 2    
    43   20   22 1    
    44   22   23 1    
    45   22   24 1    
    46   22   90 1    
    47   23   91 1    
    48   23   92 1    
    49   23   93 1    
    50   24   25 am   BACKBONE|DICT|INTERRES
    51   24   94 1    
    52   25   26 2    
    53   25   27 1    
    54   27   28 1    
    55   27   29 1    
    56   27   95 1    
    57   28   96 1    
    58   28   97 1    
    59   28   98 1    
    60   29   30 am   BACKBONE|DICT|INTERRES
    61   29   99 1    
    62   30   31 2    
    63   30   32 1    
    64   32   33 1    
    65   32   34 1    
    66   32  100 1    
    67   33  101 1    
    68   33  102 1    
    69   33  103 1    
    70   34   35 am   BACKBONE|DICT|INTERRES
    71   34  104 1    
    72   35   36 2    
    73   37   38 2    
    74   37   39 am   BACKBONE|DICT|INTERRES
    75   39   40 1    
    76   39  105 1    
    77   40   41 1    
    78   40   42 1    
    79   40  106 1    
    80   41  107 1    
    81   41  108 1    
    82   41  109 1    
    83   42   43 2    
    84   42   44 am   BACKBONE|DICT|INTERRES
    85   44   45 1    
    86   44  110 1    
    87   45   46 1    
    88   45   47 1    
    89   45  111 1    
    90   46  112 1    
    91   46  113 1    
    92   46  114 1    
    93   47   48 2    
    94   47   49 am   BACKBONE|DICT|INTERRES
    95   49   50 1    
    96   49  115 1    
    97   50   51 1    
    98   50   52 1    
    99   50  116 1    
   100   51  117 1    
   101   51  118 1    
   102   51  119 1    
   103   52   53 2    
   104   52   54 am   BACKBONE|DICT|INTERRES
   105   54   55 1    
   106   54  120 1    
   107   55   56 1    
   108   55   57 1    
   109   55  121 1    
   110   56  122 1    
   111   56  123 1    
   112   56  124 1    
   113   57   58 2    
   114   57   59 am   BACKBONE|DICT|INTERRES
   115   59   60 1    
   116   59  125 1    
   117   60   61 1    
   118   60   62 1    
   119   60  126 1    
   120   61  127 1    
   121   61  128 1    
   122   61  129 1    
   123   62   63 2    
   124   62   64 am   BACKBONE|DICT|INTERRES
   125   64   65 1    
   126   64  130 1    
   127   65   66 1    
   128   65   69 1    
   129   65  131 1    
   130   66   67 am   BACKBONE|DICT|INTERRES
   131   66   68 2    
   132   67  132 1    
   133   67  133 1    
   134   69   70 1    
   135   69  134 1    
   136   69  135 1    
   137   70   71 1    
   138   71  136 1    
   139   71  137 1    
@<TRIPOS>SUBSTRUCTURE
     1 UNK         1 GROUP             0       ****    0 ROOT    
