@<TRIPOS>MOLECULE
3R137
137   139    1
SMALL
USER_CHARGES


@<TRIPOS>ATOM
      1 CA         25.1493   -5.8383   -6.0437 C.3       0 UNK        -0.2020 
      2 C          25.3062   -6.2533   -4.5885 C.2       0 UNK         0.4855 
      3 O          24.3469   -6.7260   -3.9788 O.2       0 UNK        -0.5197 
      4 N          26.5089   -6.0780   -4.0263 N.am      1 UNK        -0.4892 
      5 CA         26.8373   -6.3613   -2.6217 C.3       1 UNK         0.0835 
      6 C6         28.3665   -6.4967   -2.4057 C.3       12 UNK        -0.0855 
      7 S7         29.3380   -5.1029   -3.0792 S.3       12 UNK        -0.2931 
      8 C8         29.8876   -4.2812   -1.5542 C.3       12 UNK         0.0378 
      9 C9         30.6944   -3.0376   -1.8867 C.ar      12 UNK        -0.0802 
     10 C10        32.0700   -3.1294   -2.1177 C.ar      12 UNK        -0.0944 
     11 C11        32.8111   -1.9918   -2.4523 C.ar      12 UNK        -0.0787 
     12 C12        32.1628   -0.7580   -2.5599 C.ar      12 UNK        -0.0862 
     13 C13        30.7843   -0.6547   -2.3490 C.ar      12 UNK        -0.0733 
     14 C14        30.0596   -1.7974   -1.9899 C.ar      12 UNK        -0.0832 
     15 C15        30.0964    0.6966   -2.5267 C.3       12 UNK         0.0240 
     16 S16        28.4949    0.5995   -3.3958 S.3       12 UNK        -0.2522 
     17 C17        28.9271   -0.3892   -4.8759 C.3       12 UNK        -0.0967 
     18 CA         27.9874   -0.1699   -6.0875 C.3       5 UNK         0.0660 
     19 N          26.5891   -0.4683   -5.7620 N.am      5 UNK        -0.4015 
     20 C          25.5335   -0.3084   -6.5766 C.2       4 UNK         0.4946 
     21 O          25.6334   -0.0238   -7.7702 O.2       4 UNK        -0.5353 
     22 CA         24.1240   -0.4103   -5.9574 C.3       4 UNK         0.0277 
     23 CB         23.4860   -1.7621   -6.3140 C.3       4 UNK        -0.1981 
     24 N          24.0905   -0.2332   -4.5013 N.am      4 UNK        -0.4209 
     25 C          24.5796    0.8132   -3.8184 C.2       3 UNK         0.4942 
     26 O          24.9758    1.8490   -4.3560 O.2       3 UNK        -0.5208 
     27 CA         24.7271    0.6576   -2.2900 C.3       3 UNK         0.0250 
     28 CB         23.6738    1.5121   -1.5662 C.3       3 UNK        -0.1990 
     29 N          24.6715   -0.7172   -1.7621 N.am      3 UNK        -0.4232 
     30 C          25.4035   -1.7728   -2.1539 C.2       2 UNK         0.4993 
     31 O          26.2017   -1.7467   -3.0950 O.2       2 UNK        -0.5286 
     32 CA         25.1669   -3.0914   -1.4020 C.3       2 UNK         0.0209 
     33 CB         23.6655   -3.4327   -1.2778 C.3       2 UNK        -0.1931 
     34 N          25.8572   -4.1593   -2.1192 N.am      2 UNK        -0.4546 
     35 C          26.1974   -5.3585   -1.6346 C.2       1 UNK         0.5154 
     36 O          26.0093   -5.6975   -0.4649 O.2       1 UNK        -0.5181 
     37 C          28.2011    1.2317   -6.6964 C.2       5 UNK         0.5014 
     38 O          29.0201    1.3634   -7.6057 O.2       5 UNK        -0.5248 
     39 N          27.4503    2.2357   -6.2175 N.am      6 UNK        -0.4434 
     40 CA         27.4983    3.6115   -6.7138 C.3       6 UNK         0.0363 
     41 CB         26.7901    4.5378   -5.7133 C.3       6 UNK        -0.1936 
     42 C          26.8884    3.7652   -8.1172 C.2       6 UNK         0.5081 
     43 O          27.3608    4.5998   -8.8885 O.2       6 UNK        -0.5248 
     44 N          25.8652    2.9583   -8.4304 N.am      7 UNK        -0.4718 
     45 CA         25.2252    2.9118   -9.7469 C.3       7 UNK         0.0273 
     46 CB         23.8020    2.3457   -9.6109 C.3       7 UNK        -0.1935 
     47 C          26.0519    2.0857  -10.7439 C.2       7 UNK         0.5018 
     48 O          26.1831    2.4843  -11.9014 O.2       7 UNK        -0.5186 
     49 N          26.6097    0.9630  -10.2697 N.am      8 UNK        -0.4240 
     50 CA         27.4898    0.0744  -11.0327 C.3       8 UNK         0.0235 
     51 CB         27.6124   -1.2619  -10.2813 C.3       8 UNK        -0.2000 
     52 C          28.8893    0.6612  -11.2966 C.2       8 UNK         0.4941 
     53 O          29.5661    0.1898  -12.2111 O.2       8 UNK        -0.5273 
     54 N          29.3022    1.6433  -10.4800 N.am      9 UNK        -0.4262 
     55 CA         30.6415    2.2392  -10.3947 C.3       9 UNK         0.0264 
     56 CB         31.0140    2.9834  -11.6948 C.3       9 UNK        -0.1955 
     57 C          31.6992    1.2083   -9.9511 C.2       9 UNK         0.5031 
     58 O          32.8095    1.1830  -10.4877 O.2       9 UNK        -0.5390 
     59 N          31.3240    0.3643   -8.9815 N.am      10 UNK        -0.4204 
     60 CA         32.1768   -0.6729   -8.4047 C.3       10 UNK         0.0237 
     61 CB         31.2970   -1.7820   -7.8064 C.3       10 UNK        -0.1985 
     62 C          33.1037   -0.0735   -7.3382 C.2       10 UNK         0.4970 
     63 O          32.6937    0.8403   -6.6186 O.2       10 UNK        -0.4914 
     64 N          34.3261   -0.6139   -7.2566 N.am      11 UNK        -0.4285 
     65 CA         35.4018   -0.1951   -6.3376 C.3       11 UNK         0.1007 
     66 C          35.9649    1.2373   -6.6013 C.2       11 UNK         0.5703 
     67 N          35.7042    1.8527   -7.7492 N.am      11 UNK        -0.7361 
     68 O          36.6832    1.7893   -5.7708 O.2       11 UNK        -0.4986 
     69 C69        35.0533   -0.4382   -4.8397 C.3       12 UNK        -0.0947 
     70 S70        34.7056   -2.1903   -4.4686 S.3       12 UNK        -0.2240 
     71 C71        34.3100   -2.1009   -2.6935 C.3       12 UNK         0.0194 
     72 H72        24.3096   -5.1520   -6.1501 H         1 UNK         0.0906 
     73 H73        24.9540   -6.7128   -6.6636 H         1 UNK         0.0906 
     74 H74        26.0416   -5.3425   -6.4256 H         1 UNK         0.0906 
     75 H75        27.2694   -5.6900   -4.5684 H         1 UNK         0.3140 
     76 H76        26.3944   -7.3301   -2.3783 H         1 UNK         0.1085 
     77 H77        28.6006   -6.6471   -1.3497 H         1 UNK         0.0836 
     78 H78        28.7150   -7.4017   -2.9058 H         1 UNK         0.0836 
     79 H79        29.0202   -4.0191   -0.9459 H         1 UNK         0.0731 
     80 H80        30.4890   -4.9719   -0.9610 H         1 UNK         0.0731 
     81 H81        32.5614   -4.0903   -2.0464 H         1 UNK         0.1312 
     82 H82        32.7311    0.1233   -2.8208 H         1 UNK         0.1406 
     83 H83        28.9920   -1.7290   -1.8273 H         1 UNK         0.1631 
     84 H84        30.7395    1.3817   -3.0816 H         1 UNK         0.0717 
     85 H85        29.9380    1.1447   -1.5452 H         1 UNK         0.0717 
     86 H86        29.9623   -0.1757   -5.1507 H         1 UNK         0.0934 
     87 H87        28.9084   -1.4432   -4.5935 H         1 UNK         0.0934 
     88 H88        28.2718   -0.8875   -6.8586 H         1 UNK         0.0739 
     89 H89        26.4188   -0.7446   -4.7982 H         1 UNK         0.3093 
     90 H90        23.5215    0.3864   -6.3980 H         1 UNK         0.0818 
     91 H91        23.4773   -1.9171   -7.3940 H         1 UNK         0.0819 
     92 H92        24.0328   -2.5946   -5.8694 H         1 UNK         0.0819 
     93 H93        22.4520   -1.8169   -5.9731 H         1 UNK         0.0819 
     94 H94        23.8022   -1.0362   -3.9628 H         1 UNK         0.3041 
     95 H95        25.7137    1.0500   -2.0362 H         1 UNK         0.0784 
     96 H96        23.7070    2.5479   -1.9080 H         1 UNK         0.0793 
     97 H97        22.6632    1.1426   -1.7448 H         1 UNK         0.0793 
     98 H98        23.8431    1.5258   -0.4893 H         1 UNK         0.0793 
     99 H99        24.0318   -0.8562   -0.9932 H         1 UNK         0.3024 
    100 H100       25.6070   -2.9906   -0.4075 H         1 UNK         0.1171 
    101 H101       23.1289   -2.6918   -0.6847 H         1 UNK         0.0786 
    102 H102       23.1842   -3.4866   -2.2553 H         1 UNK         0.0786 
    103 H103       23.5147   -4.3930   -0.7844 H         1 UNK         0.0786 
    104 H104       26.1289   -3.9166   -3.0639 H         1 UNK         0.2977 
    105 H105       26.7842    2.0388   -5.4769 H         1 UNK         0.3127 
    106 H106       28.5466    3.9122   -6.7742 H         1 UNK         0.0770 
    107 H107       25.7360    4.2802   -5.6011 H         1 UNK         0.0814 
    108 H108       26.8398    5.5771   -6.0408 H         1 UNK         0.0814 
    109 H109       27.2537    4.4855   -4.7280 H         1 UNK         0.0814 
    110 H110       25.5769    2.2589   -7.7591 H         1 UNK         0.2983 
    111 H111       25.1485    3.9289  -10.1384 H         1 UNK         0.0947 
    112 H112       23.2964    2.3313  -10.5774 H         1 UNK         0.0806 
    113 H113       23.1967    2.9536   -8.9385 H         1 UNK         0.0806 
    114 H114       23.8027    1.3240   -9.2298 H         1 UNK         0.0806 
    115 H115       26.3810    0.6762   -9.3194 H         1 UNK         0.3000 
    116 H116       27.0245   -0.1155  -12.0022 H         1 UNK         0.0850 
    117 H117       28.2236   -1.9715  -10.8405 H         1 UNK         0.0810 
    118 H118       26.6364   -1.7231  -10.1285 H         1 UNK         0.0810 
    119 H119       28.0767   -1.1309   -9.3034 H         1 UNK         0.0810 
    120 H120       28.6818    1.8927   -9.7196 H         1 UNK         0.3040 
    121 H121       30.5898    2.9805   -9.5957 H         1 UNK         0.0766 
    122 H122       31.1537    2.2981  -12.5311 H         1 UNK         0.0812 
    123 H123       31.9457    3.5368  -11.5720 H         1 UNK         0.0812 
    124 H124       30.2439    3.7024  -11.9740 H         1 UNK         0.0812 
    125 H125       30.4416    0.5543   -8.5107 H         1 UNK         0.3205 
    126 H126       32.7832   -1.1097   -9.2014 H         1 UNK         0.0754 
    127 H127       31.9083   -2.5944   -7.4108 H         1 UNK         0.0769 
    128 H128       30.6323   -2.2106   -8.5569 H         1 UNK         0.0769 
    129 H129       30.6836   -1.4118   -6.9871 H         1 UNK         0.0769 
    130 H130       34.5703   -1.3609   -7.8905 H         1 UNK         0.2981 
    131 H131       36.2417   -0.8491   -6.5737 H         1 UNK         0.0541 
    132 H132       36.0853    2.7712   -7.9124 H         1 UNK         0.3459 
    133 H133       35.1218    1.4163   -8.4464 H         1 UNK         0.3459 
    134 H134       34.2014    0.1722   -4.5426 H         1 UNK         0.0612 
    135 H135       35.8839   -0.1358   -4.1998 H         1 UNK         0.0612 
    136 H136       34.7016   -2.9962   -2.2083 H         1 UNK         0.0624 
    137 H137       34.8279   -1.2585   -2.2325 H         1 UNK         0.0624 
@<TRIPOS>BOND
     1    1    2 1    
     2    1   72 1    
     3    1   73 1    
     4    1   74 1    
     5    2    3 2    
     6    2    4 am   BACKBONE|DICT|INTERRES
     7    4    5 1    
     8    4   75 1    
     9    5    6 1    
    10    5   35 1    
    11    5   76 1    
    12    6    7 1    
    13    6   77 1    
    14    6   78 1    
    15    7    8 1    
    16    8    9 1    
    17    8   79 1    
    18    8   80 1    
    19    9   10 ar   
    20    9   14 ar   
    21   10   11 ar   
    22   10   81 1    
    23   11   12 ar   
    24   11   71 1    
    25   12   13 ar   
    26   12   82 1    
    27   13   14 ar   
    28   13   15 1    
    29   14   83 1    
    30   15   16 1    
    31   15   84 1    
    32   15   85 1    
    33   16   17 1    
    34   17   18 1    
    35   17   86 1    
    36   17   87 1    
    37   18   19 1    
    38   18   37 1    
    39   18   88 1    
    40   19   20 am   BACKBONE|DICT|INTERRES
    41   19   89 1    
    42   20   21 2    
    43   20   22 1    
    44   22   23 1    
    45   22   24 1    
    46   22   90 1    
    47   23   91 1    
    48   23   92 1    
    49   23   93 1    
    50   24   25 am   BACKBONE|DICT|INTERRES
    51   24   94 1    
    52   25   26 2    
    53   25   27 1    
    54   27   28 1    
    55   27   29 1    
    56   27   95 1    
    57   28   96 1    
    58   28   97 1    
    59   28   98 1    
    60   29   30 am   BACKBONE|DICT|INTERRES
    61   29   99 1    
    62   30   31 2    
    63   30   32 1    
    64   32   33 1    
    65   32   34 1    
    66   32  100 1    
    67   33  101 1    
    68   33  102 1    
    69   33  103 1    
    70   34   35 am   BACKBONE|DICT|INTERRES
    71   34  104 1    
    72   35   36 2    
    73   37   38 2    
    74   37   39 am   BACKBONE|DICT|INTERRES
    75   39   40 1    
    76   39  105 1    
    77   40   41 1    
    78   40   42 1    
    79   40  106 1    
    80   41  107 1    
    81   41  108 1    
    82   41  109 1    
    83   42   43 2    
    84   42   44 am   BACKBONE|DICT|INTERRES
    85   44   45 1    
    86   44  110 1    
    87   45   46 1    
    88   45   47 1    
    89   45  111 1    
    90   46  112 1    
    91   46  113 1    
    92   46  114 1    
    93   47   48 2    
    94   47   49 am   BACKBONE|DICT|INTERRES
    95   49   50 1    
    96   49  115 1    
    97   50   51 1    
    98   50   52 1    
    99   50  116 1    
   100   51  117 1    
   101   51  118 1    
   102   51  119 1    
   103   52   53 2    
   104   52   54 am   BACKBONE|DICT|INTERRES
   105   54   55 1    
   106   54  120 1    
   107   55   56 1    
   108   55   57 1    
   109   55  121 1    
   110   56  122 1    
   111   56  123 1    
   112   56  124 1    
   113   57   58 2    
   114   57   59 am   BACKBONE|DICT|INTERRES
   115   59   60 1    
   116   59  125 1    
   117   60   61 1    
   118   60   62 1    
   119   60  126 1    
   120   61  127 1    
   121   61  128 1    
   122   61  129 1    
   123   62   63 2    
   124   62   64 am   BACKBONE|DICT|INTERRES
   125   64   65 1    
   126   64  130 1    
   127   65   66 1    
   128   65   69 1    
   129   65  131 1    
   130   66   67 am   BACKBONE|DICT|INTERRES
   131   66   68 2    
   132   67  132 1    
   133   67  133 1    
   134   69   70 1    
   135   69  134 1    
   136   69  135 1    
   137   70   71 1    
   138   71  136 1    
   139   71  137 1    
@<TRIPOS>SUBSTRUCTURE
     1 UNK         1 GROUP             0       ****    0 ROOT    
