@<TRIPOS>MOLECULE
3R137
137   139    1
SMALL
USER_CHARGES


@<TRIPOS>ATOM
      1 CA         24.6767   -5.6282   -5.7661 C.3       0 UNK        -0.2020 
      2 C          25.0499   -5.0865   -4.3950 C.2       0 UNK         0.4855 
      3 O          24.2082   -4.4871   -3.7253 O.2       0 UNK        -0.5197 
      4 N          26.3080   -5.2774   -3.9744 N.am      1 UNK        -0.4892 
      5 CA         26.8498   -4.7908   -2.7005 C.3       1 UNK         0.0835 
      6 C6         28.2780   -5.3310   -2.4535 C.3       12 UNK        -0.0855 
      7 S7         28.8361   -5.0690   -0.7330 S.3       12 UNK        -0.2931 
      8 C8         30.6401   -4.8972   -0.9326 C.3       12 UNK         0.0378 
      9 C9         31.0211   -3.6842   -1.7709 C.ar      12 UNK        -0.0802 
     10 C10        31.5341   -3.8560   -3.0595 C.ar      12 UNK        -0.0944 
     11 C11        31.8736   -2.7499   -3.8418 C.ar      12 UNK        -0.0787 
     12 C12        31.7115   -1.4636   -3.3204 C.ar      12 UNK        -0.0862 
     13 C13        31.2028   -1.2743   -2.0301 C.ar      12 UNK        -0.0733 
     14 C14        30.8633   -2.3922   -1.2601 C.ar      12 UNK        -0.0832 
     15 C15        31.0191    0.1258   -1.4464 C.3       12 UNK         0.0240 
     16 S16        30.4035    1.3682   -2.6366 S.3       12 UNK        -0.2522 
     17 C17        28.8201    0.6359   -3.1660 C.3       12 UNK        -0.0967 
     18 CA         28.5842    0.7997   -4.6909 C.3       5 UNK         0.0660 
     19 N          27.7964   -0.3038   -5.2427 N.am      5 UNK        -0.4015 
     20 C          27.5097   -0.4892   -6.5395 C.2       4 UNK         0.4946 
     21 O          27.9597    0.1960   -7.4583 O.2       4 UNK        -0.5353 
     22 CA         26.5052   -1.6047   -6.8638 C.3       4 UNK         0.0277 
     23 CB         27.2140   -2.9638   -6.9851 C.3       4 UNK        -0.1981 
     24 N          25.4288   -1.6756   -5.8708 N.am      4 UNK        -0.4209 
     25 C          24.4927   -0.7274   -5.7090 C.2       3 UNK         0.4942 
     26 O          24.3983    0.2705   -6.4222 O.2       3 UNK        -0.5208 
     27 CA         23.5351   -0.8895   -4.5184 C.3       3 UNK         0.0250 
     28 CB         22.3712   -1.8275   -4.8744 C.3       3 UNK        -0.1990 
     29 N          24.2238   -1.3661   -3.3155 N.am      3 UNK        -0.4232 
     30 C          25.1023   -0.6242   -2.6222 C.2       2 UNK         0.4993 
     31 O          25.3842    0.5384   -2.9086 O.2       2 UNK        -0.5286 
     32 CA         25.8312   -1.2905   -1.4420 C.3       2 UNK         0.0209 
     33 CB         25.0513   -1.0719   -0.1364 C.3       2 UNK        -0.1931 
     34 N          26.0806   -2.7218   -1.6289 N.am      2 UNK        -0.4546 
     35 C          26.7868   -3.2502   -2.6376 C.2       1 UNK         0.5154 
     36 O          27.3240   -2.5785   -3.5221 O.2       1 UNK        -0.5181 
     37 C          27.9540    2.1691   -5.0214 C.2       5 UNK         0.5014 
     38 O          28.6279    3.0239   -5.5973 O.2       5 UNK        -0.5248 
     39 N          26.6656    2.3375   -4.6836 N.am      6 UNK        -0.4434 
     40 CA         25.8814    3.5531   -4.9230 C.3       6 UNK         0.0363 
     41 CB         24.5060    3.4185   -4.2506 C.3       6 UNK        -0.1936 
     42 C          25.7197    3.8975   -6.4126 C.2       6 UNK         0.5081 
     43 O          25.7953    5.0727   -6.7723 O.2       6 UNK        -0.5248 
     44 N          25.5242    2.8735   -7.2540 N.am      7 UNK        -0.4718 
     45 CA         25.4539    3.0024   -8.7122 C.3       7 UNK         0.0273 
     46 CB         24.8252    1.7252   -9.2940 C.3       7 UNK        -0.1935 
     47 C          26.8176    3.2661   -9.3781 C.2       7 UNK         0.5018 
     48 O          26.8375    3.6583  -10.5455 O.2       7 UNK        -0.5186 
     49 N          27.9173    3.0134   -8.6497 N.am      8 UNK        -0.4240 
     50 CA         29.3112    2.9937   -9.1107 C.3       8 UNK         0.0235 
     51 CB         29.7895    4.4083   -9.5002 C.3       8 UNK        -0.2000 
     52 C          29.5359    1.9456  -10.2194 C.2       8 UNK         0.4941 
     53 O          30.2608    2.2019  -11.1827 O.2       8 UNK        -0.5273 
     54 N          28.8880    0.7829  -10.0652 N.am      9 UNK        -0.4262 
     55 CA         28.9114   -0.3267  -11.0200 C.3       9 UNK         0.0264 
     56 CB         27.6464   -1.1779  -10.8213 C.3       9 UNK        -0.1955 
     57 C          30.1726   -1.1976  -10.8951 C.2       9 UNK         0.5031 
     58 O          30.4903   -1.9337  -11.8308 O.2       9 UNK        -0.5390 
     59 N          30.8613   -1.1078   -9.7535 N.am      10 UNK        -0.4204 
     60 CA         32.0902   -1.8194   -9.4279 C.3       10 UNK         0.0237 
     61 CB         31.7499   -3.2372   -8.9274 C.3       10 UNK        -0.1985 
     62 C          32.8465   -1.0164   -8.3636 C.2       10 UNK         0.4970 
     63 O          32.2653   -0.1146   -7.7533 O.2       10 UNK        -0.4914 
     64 N          34.1147   -1.3854   -8.1458 N.am      11 UNK        -0.4285 
     65 CA         35.0138   -0.8429   -7.1084 C.3       11 UNK         0.1007 
     66 C          35.4408    0.6431   -7.3181 C.2       11 UNK         0.5703 
     67 N          35.2691    1.2194   -8.5021 N.am      11 UNK        -0.7361 
     68 O          35.9705    1.2767   -6.4079 O.2       11 UNK        -0.4986 
     69 C69        34.5152   -1.1250   -5.6590 C.3       12 UNK        -0.0947 
     70 S70        34.2011   -2.8980   -5.3472 S.3       12 UNK        -0.2240 
     71 C71        32.3834   -2.9506   -5.2597 C.3       12 UNK         0.0194 
     72 H72        25.5266   -6.0892   -6.2690 H         1 UNK         0.0906 
     73 H73        23.8912   -6.3773   -5.6704 H         1 UNK         0.0906 
     74 H74        24.3032   -4.8234   -6.3988 H         1 UNK         0.0906 
     75 H75        26.9635   -5.7576   -4.5743 H         1 UNK         0.3140 
     76 H76        26.2028   -5.1946   -1.9182 H         1 UNK         0.1085 
     77 H77        28.3088   -6.4054   -2.6418 H         1 UNK         0.0836 
     78 H78        28.9764   -4.8824   -3.1606 H         1 UNK         0.0836 
     79 H79        31.0387   -5.8138   -1.3707 H         1 UNK         0.0731 
     80 H80        31.0972   -4.8085    0.0540 H         1 UNK         0.0731 
     81 H81        31.6570   -4.8528   -3.4609 H         1 UNK         0.1312 
     82 H82        31.9693   -0.6064   -3.9247 H         1 UNK         0.1406 
     83 H83        30.4666   -2.2618   -0.2622 H         1 UNK         0.1631 
     84 H84        31.9780    0.4657   -1.0535 H         1 UNK         0.0717 
     85 H85        30.3309    0.0980   -0.6000 H         1 UNK         0.0717 
     86 H86        28.8290   -0.4232   -2.9075 H         1 UNK         0.0934 
     87 H87        28.0142    1.0700   -2.5718 H         1 UNK         0.0934 
     88 H88        29.5495    0.7516   -5.2006 H         1 UNK         0.0739 
     89 H89        27.4464   -0.9879   -4.5772 H         1 UNK         0.3093 
     90 H90        26.0542   -1.3697   -7.8302 H         1 UNK         0.0818 
     91 H91        26.5265   -3.7401   -7.3193 H         1 UNK         0.0819 
     92 H92        28.0244   -2.9169   -7.7139 H         1 UNK         0.0819 
     93 H93        27.6516   -3.2842   -6.0395 H         1 UNK         0.0819 
     94 H94        25.4720   -2.4283   -5.1989 H         1 UNK         0.3041 
     95 H95        23.1154    0.0942   -4.2960 H         1 UNK         0.0784 
     96 H96        21.8072   -1.4384   -5.7232 H         1 UNK         0.0793 
     97 H97        22.7171   -2.8245   -5.1468 H         1 UNK         0.0793 
     98 H98        21.6742   -1.9295   -4.0425 H         1 UNK         0.0793 
     99 H99        24.0771   -2.3340   -3.0529 H         1 UNK         0.3024 
    100 H100       26.8022   -0.8012   -1.3441 H         1 UNK         0.1171 
    101 H101       24.8726   -0.0096    0.0375 H         1 UNK         0.0786 
    102 H102       25.6032   -1.4499    0.7244 H         1 UNK         0.0786 
    103 H103       24.0794   -1.5666   -0.1576 H         1 UNK         0.0786 
    104 H104       25.6600   -3.3437   -0.9532 H         1 UNK         0.2977 
    105 H105       26.1917    1.5943   -4.1712 H         1 UNK         0.3127 
    106 H106       26.4121    4.3822   -4.4504 H         1 UNK         0.0770 
    107 H107       23.9420    2.5767   -4.6543 H         1 UNK         0.0814 
    108 H108       23.9066    4.3173   -4.4009 H         1 UNK         0.0814 
    109 H109       24.6034    3.2697   -3.1750 H         1 UNK         0.0814 
    110 H110       25.3953    1.9400   -6.8723 H         1 UNK         0.2983 
    111 H111       24.8046    3.8468   -8.9538 H         1 UNK         0.0947 
    112 H112       24.7304    1.7914  -10.3787 H         1 UNK         0.0806 
    113 H113       23.8264    1.5558   -8.8915 H         1 UNK         0.0806 
    114 H114       25.4291    0.8445   -9.0716 H         1 UNK         0.0806 
    115 H115       27.7799    2.6931   -7.6982 H         1 UNK         0.3000 
    116 H116       29.9069    2.6654   -8.2572 H         1 UNK         0.0850 
    117 H117       30.8583    4.4118   -9.7171 H         1 UNK         0.0810 
    118 H118       29.6209    5.1189   -8.6911 H         1 UNK         0.0810 
    119 H119       29.2773    4.7809  -10.3877 H         1 UNK         0.0810 
    120 H120       28.3740    0.6332   -9.1973 H         1 UNK         0.3040 
    121 H121       28.8922    0.0826  -12.0324 H         1 UNK         0.0766 
    122 H122       26.7426   -0.5830  -10.9543 H         1 UNK         0.0812 
    123 H123       27.6131   -1.6227   -9.8269 H         1 UNK         0.0812 
    124 H124       27.6069   -1.9935  -11.5448 H         1 UNK         0.0812 
    125 H125       30.5718   -0.4380   -9.0503 H         1 UNK         0.3205 
    126 H126       32.7189   -1.8814  -10.3188 H         1 UNK         0.0754 
    127 H127       32.6459   -3.7810   -8.6257 H         1 UNK         0.0769 
    128 H128       31.2652   -3.8254   -9.7070 H         1 UNK         0.0769 
    129 H129       31.0781   -3.2090   -8.0687 H         1 UNK         0.0769 
    130 H130       34.5069   -2.1279   -8.7065 H         1 UNK         0.2981 
    131 H131       35.9436   -1.3994   -7.2301 H         1 UNK         0.0541 
    132 H132       34.8484    0.7111   -9.2627 H         1 UNK         0.3459 
    133 H133       35.5595    2.1757   -8.6314 H         1 UNK         0.3459 
    134 H134       35.2625   -0.8050   -4.9311 H         1 UNK         0.0612 
    135 H135       33.6223   -0.5387   -5.4457 H         1 UNK         0.0612 
    136 H136       31.9451   -2.1998   -5.9161 H         1 UNK         0.0624 
    137 H137       32.0485   -3.9155   -5.6433 H         1 UNK         0.0624 
@<TRIPOS>BOND
     1    1    2 1    
     2    1   72 1    
     3    1   73 1    
     4    1   74 1    
     5    2    3 2    
     6    2    4 am   BACKBONE|DICT|INTERRES
     7    4    5 1    
     8    4   75 1    
     9    5    6 1    
    10    5   35 1    
    11    5   76 1    
    12    6    7 1    
    13    6   77 1    
    14    6   78 1    
    15    7    8 1    
    16    8    9 1    
    17    8   79 1    
    18    8   80 1    
    19    9   10 ar   
    20    9   14 ar   
    21   10   11 ar   
    22   10   81 1    
    23   11   12 ar   
    24   11   71 1    
    25   12   13 ar   
    26   12   82 1    
    27   13   14 ar   
    28   13   15 1    
    29   14   83 1    
    30   15   16 1    
    31   15   84 1    
    32   15   85 1    
    33   16   17 1    
    34   17   18 1    
    35   17   86 1    
    36   17   87 1    
    37   18   19 1    
    38   18   37 1    
    39   18   88 1    
    40   19   20 am   BACKBONE|DICT|INTERRES
    41   19   89 1    
    42   20   21 2    
    43   20   22 1    
    44   22   23 1    
    45   22   24 1    
    46   22   90 1    
    47   23   91 1    
    48   23   92 1    
    49   23   93 1    
    50   24   25 am   BACKBONE|DICT|INTERRES
    51   24   94 1    
    52   25   26 2    
    53   25   27 1    
    54   27   28 1    
    55   27   29 1    
    56   27   95 1    
    57   28   96 1    
    58   28   97 1    
    59   28   98 1    
    60   29   30 am   BACKBONE|DICT|INTERRES
    61   29   99 1    
    62   30   31 2    
    63   30   32 1    
    64   32   33 1    
    65   32   34 1    
    66   32  100 1    
    67   33  101 1    
    68   33  102 1    
    69   33  103 1    
    70   34   35 am   BACKBONE|DICT|INTERRES
    71   34  104 1    
    72   35   36 2    
    73   37   38 2    
    74   37   39 am   BACKBONE|DICT|INTERRES
    75   39   40 1    
    76   39  105 1    
    77   40   41 1    
    78   40   42 1    
    79   40  106 1    
    80   41  107 1    
    81   41  108 1    
    82   41  109 1    
    83   42   43 2    
    84   42   44 am   BACKBONE|DICT|INTERRES
    85   44   45 1    
    86   44  110 1    
    87   45   46 1    
    88   45   47 1    
    89   45  111 1    
    90   46  112 1    
    91   46  113 1    
    92   46  114 1    
    93   47   48 2    
    94   47   49 am   BACKBONE|DICT|INTERRES
    95   49   50 1    
    96   49  115 1    
    97   50   51 1    
    98   50   52 1    
    99   50  116 1    
   100   51  117 1    
   101   51  118 1    
   102   51  119 1    
   103   52   53 2    
   104   52   54 am   BACKBONE|DICT|INTERRES
   105   54   55 1    
   106   54  120 1    
   107   55   56 1    
   108   55   57 1    
   109   55  121 1    
   110   56  122 1    
   111   56  123 1    
   112   56  124 1    
   113   57   58 2    
   114   57   59 am   BACKBONE|DICT|INTERRES
   115   59   60 1    
   116   59  125 1    
   117   60   61 1    
   118   60   62 1    
   119   60  126 1    
   120   61  127 1    
   121   61  128 1    
   122   61  129 1    
   123   62   63 2    
   124   62   64 am   BACKBONE|DICT|INTERRES
   125   64   65 1    
   126   64  130 1    
   127   65   66 1    
   128   65   69 1    
   129   65  131 1    
   130   66   67 am   BACKBONE|DICT|INTERRES
   131   66   68 2    
   132   67  132 1    
   133   67  133 1    
   134   69   70 1    
   135   69  134 1    
   136   69  135 1    
   137   70   71 1    
   138   71  136 1    
   139   71  137 1    
@<TRIPOS>SUBSTRUCTURE
     1 UNK         1 GROUP             0       ****    0 ROOT    
