@<TRIPOS>MOLECULE
3R137
137   139    1
SMALL
USER_CHARGES


@<TRIPOS>ATOM
      1 CA         27.9102   -4.6531    2.0361 C.3       0 UNK        -0.2020 
      2 C          27.2095   -3.3858    1.5699 C.2       0 UNK         0.4855 
      3 O          26.3458   -2.8678    2.2781 O.2       0 UNK        -0.5197 
      4 N          27.5772   -2.8824    0.3841 N.am      1 UNK        -0.4892 
      5 CA         27.0069   -1.6731   -0.2275 C.3       1 UNK         0.0835 
      6 C6         27.8831   -1.1388   -1.3869 C.3       12 UNK        -0.0855 
      7 S7         29.5435   -0.6159   -0.8316 S.3       12 UNK        -0.2931 
      8 C8         30.5932   -2.0526   -1.2329 C.3       12 UNK         0.0378 
      9 C9         30.6864   -2.3036   -2.7308 C.ar      12 UNK        -0.0802 
     10 C10        31.4849   -1.4818   -3.5309 C.ar      12 UNK        -0.0944 
     11 C11        31.5707   -1.6993   -4.9092 C.ar      12 UNK        -0.0787 
     12 C12        30.8637   -2.7613   -5.4809 C.ar      12 UNK        -0.0862 
     13 C13        30.0535   -3.5846   -4.6939 C.ar      12 UNK        -0.0733 
     14 C14        29.9778   -3.3569   -3.3170 C.ar      12 UNK        -0.0832 
     15 C15        29.2594   -4.7218   -5.3255 C.3       12 UNK         0.0240 
     16 S16        28.0867   -4.1571   -6.6045 S.3       12 UNK        -0.2522 
     17 C17        26.9979   -3.0134   -5.6841 C.3       12 UNK        -0.0967 
     18 CA         26.7617   -1.6826   -6.4436 C.3       5 UNK         0.0660 
     19 N          25.5450   -0.9938   -5.9847 N.am      5 UNK        -0.4015 
     20 C          25.0456    0.1347   -6.5229 C.2       4 UNK         0.4946 
     21 O          25.6096    0.7659   -7.4185 O.2       4 UNK        -0.5353 
     22 CA         23.6960    0.6412   -5.9887 C.3       4 UNK         0.0277 
     23 CB         22.9617    1.5539   -6.9901 C.3       4 UNK        -0.1981 
     24 N          22.8466   -0.4941   -5.6425 N.am      4 UNK        -0.4209 
     25 C          22.1281   -0.6090   -4.5220 C.2       3 UNK         0.4942 
     26 O          21.9635    0.3015   -3.7083 O.2       3 UNK        -0.5208 
     27 CA         21.5282   -1.9971   -4.2264 C.3       3 UNK         0.0250 
     28 CB         21.5260   -2.9611   -5.4364 C.3       3 UNK        -0.1990 
     29 N          22.1937   -2.6288   -3.0803 N.am      3 UNK        -0.4232 
     30 C          23.5110   -2.8323   -2.9178 C.2       2 UNK         0.4993 
     31 O          24.3742   -2.5302   -3.7493 O.2       2 UNK        -0.5286 
     32 CA         23.9208   -3.5386   -1.6142 C.3       2 UNK         0.0209 
     33 CB         23.9266   -5.0628   -1.8160 C.3       2 UNK        -0.1931 
     34 N          25.2394   -3.1224   -1.1333 N.am      2 UNK        -0.4546 
     35 C          25.5553   -1.8912   -0.7054 C.2       1 UNK         0.5154 
     36 O          24.7543   -0.9565   -0.6542 O.2       1 UNK        -0.5181 
     37 C          28.0119   -0.7761   -6.4472 C.2       5 UNK         0.5014 
     38 O          28.8019   -0.8408   -7.3911 O.2       5 UNK        -0.5248 
     39 N          28.1195    0.1022   -5.4378 N.am      6 UNK        -0.4434 
     40 CA         29.1677    1.1170   -5.3067 C.3       6 UNK         0.0363 
     41 CB         28.9519    1.9207   -4.0154 C.3       6 UNK        -0.1936 
     42 C          29.2770    2.0569   -6.5188 C.2       6 UNK         0.5081 
     43 O          30.3879    2.3369   -6.9708 O.2       6 UNK        -0.5248 
     44 N          28.1228    2.5023   -7.0306 N.am      7 UNK        -0.4718 
     45 CA         28.0211    3.3650   -8.2056 C.3       7 UNK         0.0273 
     46 CB         26.7187    4.1782   -8.1274 C.3       7 UNK        -0.1935 
     47 C          28.0770    2.5617   -9.5123 C.2       7 UNK         0.5018 
     48 O          28.7058    3.0169  -10.4674 O.2       7 UNK        -0.5186 
     49 N          27.4134    1.3965   -9.5366 N.am      8 UNK        -0.4240 
     50 CA         27.2941    0.5320  -10.7118 C.3       8 UNK         0.0235 
     51 CB         26.2379   -0.5546  -10.4562 C.3       8 UNK        -0.2000 
     52 C          28.6279   -0.0939  -11.1462 C.2       8 UNK         0.4941 
     53 O          28.9342   -0.0761  -12.3394 O.2       8 UNK        -0.5273 
     54 N          29.3958   -0.6314  -10.1871 N.am      9 UNK        -0.4262 
     55 CA         30.7121   -1.2203  -10.4482 C.3       9 UNK         0.0264 
     56 CB         31.0395   -2.2561   -9.3653 C.3       9 UNK        -0.1955 
     57 C          31.8228   -0.1609  -10.5313 C.2       9 UNK         0.5031 
     58 O          32.8002   -0.3886  -11.2452 O.2       9 UNK        -0.5390 
     59 N          31.6485    0.9637   -9.8157 N.am      10 UNK        -0.4204 
     60 CA         32.5409    2.1279   -9.7491 C.3       10 UNK         0.0237 
     61 CB         32.5233    2.8955  -11.0882 C.3       10 UNK        -0.1985 
     62 C          33.9630    1.7534   -9.2882 C.2       10 UNK         0.4970 
     63 O          34.9227    1.9127  -10.0455 O.2       10 UNK        -0.4914 
     64 N          34.0624    1.2394   -8.0548 N.am      11 UNK        -0.4285 
     65 CA         35.3192    0.7754   -7.4367 C.3       11 UNK         0.1007 
     66 C          36.3851    1.8848   -7.1895 C.2       11 UNK         0.5703 
     67 N          36.0234    3.1625   -7.1632 N.am      11 UNK        -0.7361 
     68 O          37.5625    1.5768   -7.0190 O.2       11 UNK        -0.4986 
     69 C69        35.0726   -0.0198   -6.1260 C.3       12 UNK        -0.0947 
     70 S70        33.9566   -1.4528   -6.3153 S.3       12 UNK        -0.2240 
     71 C71        32.3699   -0.7428   -5.7820 C.3       12 UNK         0.0194 
     72 H72        28.4115   -4.4757    2.9872 H         1 UNK         0.0906 
     73 H73        27.1835   -5.4525    2.1783 H         1 UNK         0.0906 
     74 H74        28.6560   -4.9964    1.3195 H         1 UNK         0.0906 
     75 H75        28.3051   -3.3405   -0.1424 H         1 UNK         0.3140 
     76 H76        26.9659   -0.9008    0.5445 H         1 UNK         0.1085 
     77 H77        27.4122   -0.2619   -1.8359 H         1 UNK         0.0836 
     78 H78        27.9602   -1.8724   -2.1892 H         1 UNK         0.0836 
     79 H79        31.5945   -1.8710   -0.8393 H         1 UNK         0.0731 
     80 H80        30.2248   -2.9365   -0.7119 H         1 UNK         0.0731 
     81 H81        32.0215   -0.6584   -3.0795 H         1 UNK         0.1312 
     82 H82        30.9171   -2.9367   -6.5444 H         1 UNK         0.1406 
     83 H83        29.3597   -3.9964   -2.7021 H         1 UNK         0.1631 
     84 H84        29.9565   -5.4283   -5.7779 H         1 UNK         0.0717 
     85 H85        28.7061   -5.2798   -4.5686 H         1 UNK         0.0717 
     86 H86        26.0504   -3.5369   -5.5492 H         1 UNK         0.0934 
     87 H87        27.3780   -2.8296   -4.6781 H         1 UNK         0.0934 
     88 H88        26.5652   -1.9387   -7.4853 H         1 UNK         0.0739 
     89 H89        25.0434   -1.4426   -5.2204 H         1 UNK         0.3093 
     90 H90        23.9238    1.2234   -5.0933 H         1 UNK         0.0818 
     91 H91        22.0111    1.9014   -6.5855 H         1 UNK         0.0819 
     92 H92        23.5550    2.4389   -7.2237 H         1 UNK         0.0819 
     93 H93        22.7591    1.0382   -7.9295 H         1 UNK         0.0819 
     94 H94        22.9240   -1.3042   -6.2421 H         1 UNK         0.3041 
     95 H95        20.4903   -1.8261   -3.9365 H         1 UNK         0.0784 
     96 H96        21.0149   -2.5204   -6.2937 H         1 UNK         0.0793 
     97 H97        22.5327   -3.2398   -5.7504 H         1 UNK         0.0793 
     98 H98        20.9970   -3.8830   -5.1944 H         1 UNK         0.0793 
     99 H99        21.5769   -2.8993   -2.3268 H         1 UNK         0.3024 
    100 H100       23.1938   -3.2874   -0.8384 H         1 UNK         0.1171 
    101 H101       24.6520   -5.3655   -2.5726 H         1 UNK         0.0786 
    102 H102       24.1668   -5.5863   -0.8904 H         1 UNK         0.0786 
    103 H103       22.9487   -5.4195   -2.1428 H         1 UNK         0.0786 
    104 H104       25.9662   -3.8218   -1.1425 H         1 UNK         0.2977 
    105 H105       27.4088    0.0905   -4.7223 H         1 UNK         0.3127 
    106 H106       30.1156    0.5947   -5.2152 H         1 UNK         0.0770 
    107 H107       27.9862    2.4273   -4.0071 H         1 UNK         0.0814 
    108 H108       29.7222    2.6843   -3.8987 H         1 UNK         0.0814 
    109 H109       29.0047    1.2784   -3.1371 H         1 UNK         0.0814 
    110 H110       27.2545    2.1490   -6.6507 H         1 UNK         0.2983 
    111 H111       28.8596    4.0656   -8.2078 H         1 UNK         0.0947 
    112 H112       26.6227    4.8434   -8.9866 H         1 UNK         0.0806 
    113 H113       26.6931    4.8001   -7.2325 H         1 UNK         0.0806 
    114 H114       25.8383    3.5341   -8.1136 H         1 UNK         0.0806 
    115 H115       26.8827    1.1229   -8.7115 H         1 UNK         0.3000 
    116 H116       26.9396    1.1539  -11.5368 H         1 UNK         0.0850 
    117 H117       26.0791   -1.1607  -11.3490 H         1 UNK         0.0810 
    118 H118       25.2764   -0.1192  -10.1830 H         1 UNK         0.0810 
    119 H119       26.5404   -1.2285   -9.6560 H         1 UNK         0.0810 
    120 H120       29.0742   -0.6324   -9.2194 H         1 UNK         0.3040 
    121 H121       30.6797   -1.7440  -11.4062 H         1 UNK         0.0766 
    122 H122       31.1520   -1.7783   -8.3958 H         1 UNK         0.0812 
    123 H123       31.9752   -2.7716   -9.5853 H         1 UNK         0.0812 
    124 H124       30.2580   -3.0116   -9.2809 H         1 UNK         0.0812 
    125 H125       30.8116    1.0308   -9.2527 H         1 UNK         0.3205 
    126 H126       32.1306    2.7941   -8.9890 H         1 UNK         0.0754 
    127 H127       33.1251    3.8030  -11.0260 H         1 UNK         0.0769 
    128 H128       31.5100    3.1957  -11.3563 H         1 UNK         0.0769 
    129 H129       32.9216    2.2957  -11.9074 H         1 UNK         0.0769 
    130 H130       33.2281    1.1475   -7.4960 H         1 UNK         0.2981 
    131 H131       35.7724    0.0850   -8.1507 H         1 UNK         0.0541 
    132 H132       36.7237    3.8699   -7.0054 H         1 UNK         0.3459 
    133 H133       35.0614    3.4261   -7.3007 H         1 UNK         0.3459 
    134 H134       34.7042    0.6401   -5.3390 H         1 UNK         0.0612 
    135 H135       36.0185   -0.4159   -5.7516 H         1 UNK         0.0612 
    136 H136       32.5335    0.1898   -5.2413 H         1 UNK         0.0624 
    137 H137       31.7861   -0.4714   -6.6615 H         1 UNK         0.0624 
@<TRIPOS>BOND
     1    1    2 1    
     2    1   72 1    
     3    1   73 1    
     4    1   74 1    
     5    2    3 2    
     6    2    4 am   BACKBONE|DICT|INTERRES
     7    4    5 1    
     8    4   75 1    
     9    5    6 1    
    10    5   35 1    
    11    5   76 1    
    12    6    7 1    
    13    6   77 1    
    14    6   78 1    
    15    7    8 1    
    16    8    9 1    
    17    8   79 1    
    18    8   80 1    
    19    9   10 ar   
    20    9   14 ar   
    21   10   11 ar   
    22   10   81 1    
    23   11   12 ar   
    24   11   71 1    
    25   12   13 ar   
    26   12   82 1    
    27   13   14 ar   
    28   13   15 1    
    29   14   83 1    
    30   15   16 1    
    31   15   84 1    
    32   15   85 1    
    33   16   17 1    
    34   17   18 1    
    35   17   86 1    
    36   17   87 1    
    37   18   19 1    
    38   18   37 1    
    39   18   88 1    
    40   19   20 am   BACKBONE|DICT|INTERRES
    41   19   89 1    
    42   20   21 2    
    43   20   22 1    
    44   22   23 1    
    45   22   24 1    
    46   22   90 1    
    47   23   91 1    
    48   23   92 1    
    49   23   93 1    
    50   24   25 am   BACKBONE|DICT|INTERRES
    51   24   94 1    
    52   25   26 2    
    53   25   27 1    
    54   27   28 1    
    55   27   29 1    
    56   27   95 1    
    57   28   96 1    
    58   28   97 1    
    59   28   98 1    
    60   29   30 am   BACKBONE|DICT|INTERRES
    61   29   99 1    
    62   30   31 2    
    63   30   32 1    
    64   32   33 1    
    65   32   34 1    
    66   32  100 1    
    67   33  101 1    
    68   33  102 1    
    69   33  103 1    
    70   34   35 am   BACKBONE|DICT|INTERRES
    71   34  104 1    
    72   35   36 2    
    73   37   38 2    
    74   37   39 am   BACKBONE|DICT|INTERRES
    75   39   40 1    
    76   39  105 1    
    77   40   41 1    
    78   40   42 1    
    79   40  106 1    
    80   41  107 1    
    81   41  108 1    
    82   41  109 1    
    83   42   43 2    
    84   42   44 am   BACKBONE|DICT|INTERRES
    85   44   45 1    
    86   44  110 1    
    87   45   46 1    
    88   45   47 1    
    89   45  111 1    
    90   46  112 1    
    91   46  113 1    
    92   46  114 1    
    93   47   48 2    
    94   47   49 am   BACKBONE|DICT|INTERRES
    95   49   50 1    
    96   49  115 1    
    97   50   51 1    
    98   50   52 1    
    99   50  116 1    
   100   51  117 1    
   101   51  118 1    
   102   51  119 1    
   103   52   53 2    
   104   52   54 am   BACKBONE|DICT|INTERRES
   105   54   55 1    
   106   54  120 1    
   107   55   56 1    
   108   55   57 1    
   109   55  121 1    
   110   56  122 1    
   111   56  123 1    
   112   56  124 1    
   113   57   58 2    
   114   57   59 am   BACKBONE|DICT|INTERRES
   115   59   60 1    
   116   59  125 1    
   117   60   61 1    
   118   60   62 1    
   119   60  126 1    
   120   61  127 1    
   121   61  128 1    
   122   61  129 1    
   123   62   63 2    
   124   62   64 am   BACKBONE|DICT|INTERRES
   125   64   65 1    
   126   64  130 1    
   127   65   66 1    
   128   65   69 1    
   129   65  131 1    
   130   66   67 am   BACKBONE|DICT|INTERRES
   131   66   68 2    
   132   67  132 1    
   133   67  133 1    
   134   69   70 1    
   135   69  134 1    
   136   69  135 1    
   137   70   71 1    
   138   71  136 1    
   139   71  137 1    
@<TRIPOS>SUBSTRUCTURE
     1 UNK         1 GROUP             0       ****    0 ROOT    
