@<TRIPOS>MOLECULE
3R137
137   139    1
SMALL
USER_CHARGES


@<TRIPOS>ATOM
      1 CA         31.6539    0.6866    0.2074 C.3       0 UNK        -0.2020 
      2 C          30.6989   -0.4976    0.2479 C.2       0 UNK         0.4855 
      3 O          30.2557   -0.8806    1.3311 O.2       0 UNK        -0.5197 
      4 N          30.3978   -1.0703   -0.9249 N.am      1 UNK        -0.4892 
      5 CA         29.4417   -2.1518   -1.1908 C.3       1 UNK         0.0835 
      6 C6         29.6089   -3.3741   -0.2437 C.3       12 UNK        -0.0855 
      7 S7         28.9261   -4.9278   -0.9162 S.3       12 UNK        -0.2931 
      8 C8         30.4156   -5.7455   -1.5623 C.3       12 UNK         0.0378 
      9 C9         30.8950   -5.1255   -2.8673 C.ar      12 UNK        -0.0802 
     10 C10        32.1308   -4.4738   -2.9302 C.ar      12 UNK        -0.0944 
     11 C11        32.6192   -3.9935   -4.1495 C.ar      12 UNK        -0.0787 
     12 C12        31.8493   -4.1508   -5.3065 C.ar      12 UNK        -0.0862 
     13 C13        30.6022   -4.7832   -5.2534 C.ar      12 UNK        -0.0733 
     14 C14        30.1300   -5.2660   -4.0298 C.ar      12 UNK        -0.0832 
     15 C15        29.8077   -5.0191   -6.5313 C.3       12 UNK         0.0240 
     16 S16        29.3147   -3.4689   -7.3441 S.3       12 UNK        -0.2522 
     17 C17        27.7906   -3.0069   -6.4516 C.3       12 UNK        -0.0967 
     18 CA         26.8893   -2.0866   -7.3157 C.3       5 UNK         0.0660 
     19 N          25.5320   -1.9726   -6.7855 N.am      5 UNK        -0.4015 
     20 C          24.4492   -1.7344   -7.5409 C.2       4 UNK         0.4946 
     21 O          24.4609   -1.7175   -8.7723 O.2       4 UNK        -0.5353 
     22 CA         23.1251   -1.4500   -6.8080 C.3       4 UNK         0.0277 
     23 CB         22.3226   -2.7483   -6.6247 C.3       4 UNK        -0.1981 
     24 N          23.3017   -0.8015   -5.5064 N.am      4 UNK        -0.4209 
     25 C          23.8283    0.4179   -5.3215 C.2       3 UNK         0.4942 
     26 O          24.1901    1.1567   -6.2359 O.2       3 UNK        -0.5208 
     27 CA         24.0422    0.8622   -3.8647 C.3       3 UNK         0.0250 
     28 CB         22.7810    1.5541   -3.3239 C.3       3 UNK        -0.1990 
     29 N          24.4322   -0.2272   -2.9612 N.am      3 UNK        -0.4232 
     30 C          25.5019   -1.0204   -3.1175 C.2       2 UNK         0.4993 
     31 O          26.2716   -0.9633   -4.0822 O.2       2 UNK        -0.5286 
     32 CA         25.6908   -2.1164   -2.0592 C.3       2 UNK         0.0209 
     33 CB         24.9627   -3.3988   -2.4946 C.3       2 UNK        -0.1931 
     34 N          27.1030   -2.4282   -1.8456 N.am      2 UNK        -0.4546 
     35 C          27.9913   -1.6202   -1.2545 C.2       1 UNK         0.5154 
     36 O          27.6934   -0.5187   -0.7830 O.2       1 UNK        -0.5181 
     37 C          27.4911   -0.6811   -7.4941 C.2       5 UNK         0.5014 
     38 O          28.0074   -0.3782   -8.5704 O.2       5 UNK        -0.5248 
     39 N          27.4027    0.1600   -6.4516 N.am      6 UNK        -0.4434 
     40 CA         28.0123    1.4939   -6.4025 C.3       6 UNK         0.0363 
     41 CB         27.8097    2.1112   -5.0122 C.3       6 UNK        -0.1936 
     42 C          27.5339    2.4532   -7.5042 C.2       6 UNK         0.5081 
     43 O          28.3329    3.2493   -7.9947 O.2       6 UNK        -0.5248 
     44 N          26.2671    2.3287   -7.9198 N.am      7 UNK        -0.4718 
     45 CA         25.6853    3.0672   -9.0441 C.3       7 UNK         0.0273 
     46 CB         24.1708    2.8058   -9.0825 C.3       7 UNK        -0.1935 
     47 C          26.3159    2.7460  -10.4147 C.2       7 UNK         0.5018 
     48 O          26.1821    3.5614  -11.3285 O.2       7 UNK        -0.5186 
     49 N          26.9678    1.5816  -10.5454 N.am      8 UNK        -0.4240 
     50 CA         27.5834    1.1061  -11.7848 C.3       8 UNK         0.0235 
     51 CB         27.0276   -0.2896  -12.1171 C.3       8 UNK        -0.2000 
     52 C          29.1153    1.0612  -11.6904 C.2       8 UNK         0.4941 
     53 O          29.7857    1.5177  -12.6172 O.2       8 UNK        -0.5273 
     54 N          29.6422    0.4903  -10.5996 N.am      9 UNK        -0.4262 
     55 CA         31.0542    0.1313  -10.4398 C.3       9 UNK         0.0264 
     56 CB         31.1299   -1.3648  -10.0868 C.3       9 UNK        -0.1955 
     57 C          31.7877    0.9724   -9.3823 C.2       9 UNK         0.5031 
     58 O          32.9222    0.6306   -9.0433 O.2       9 UNK        -0.5390 
     59 N          31.1483    2.0256   -8.8511 N.am      10 UNK        -0.4204 
     60 CA         31.6319    2.9671   -7.8248 C.3       10 UNK         0.0237 
     61 CB         32.9092    3.7031   -8.2772 C.3       10 UNK        -0.1985 
     62 C          31.8080    2.3606   -6.4190 C.2       10 UNK         0.4970 
     63 O          31.4256    3.0059   -5.4430 O.2       10 UNK        -0.4914 
     64 N          32.3692    1.1490   -6.3343 N.am      11 UNK        -0.4285 
     65 CA         32.5399    0.3707   -5.1016 C.3       11 UNK         0.1007 
     66 C          31.1872   -0.0479   -4.4691 C.2       11 UNK         0.5703 
     67 N          30.3224   -0.7340   -5.2029 N.am      11 UNK        -0.7361 
     68 O          30.9212    0.2564   -3.3109 O.2       11 UNK        -0.4986 
     69 C69        33.4812   -0.8373   -5.3352 C.3       12 UNK        -0.0947 
     70 S70        34.0376   -1.6173   -3.7816 S.3       12 UNK        -0.2240 
     71 C71        34.0128   -3.3819   -4.2245 C.3       12 UNK         0.0194 
     72 H72        31.1564    1.5819    0.5792 H         1 UNK         0.0906 
     73 H73        32.5219    0.4914    0.8366 H         1 UNK         0.0906 
     74 H74        32.0081    0.8906   -0.8032 H         1 UNK         0.0906 
     75 H75        30.7383   -0.6163   -1.7733 H         1 UNK         0.3140 
     76 H76        29.6901   -2.4784   -2.2026 H         1 UNK         0.1085 
     77 H77        30.6661   -3.5307   -0.0239 H         1 UNK         0.0836 
     78 H78        29.1348   -3.1837    0.7208 H         1 UNK         0.0836 
     79 H79        31.2011   -5.7330   -0.8050 H         1 UNK         0.0731 
     80 H80        30.1853   -6.7973   -1.7383 H         1 UNK         0.0731 
     81 H81        32.7330   -4.3725   -2.0375 H         1 UNK         0.1312 
     82 H82        32.2287   -3.8054   -6.2582 H         1 UNK         0.1406 
     83 H83        29.1806   -5.7823   -3.9828 H         1 UNK         0.1631 
     84 H84        28.9265   -5.6351   -6.3459 H         1 UNK         0.0717 
     85 H85        30.4308   -5.5861   -7.2242 H         1 UNK         0.0717 
     86 H86        27.2475   -3.9219   -6.2105 H         1 UNK         0.0934 
     87 H87        28.0473   -2.5497   -5.4949 H         1 UNK         0.0934 
     88 H88        26.8247   -2.5377   -8.3089 H         1 UNK         0.0739 
     89 H89        25.4524   -1.9022   -5.7787 H         1 UNK         0.3093 
     90 H90        22.5441   -0.7727   -7.4379 H         1 UNK         0.0818 
     91 H91        21.3426   -2.5520   -6.1893 H         1 UNK         0.0819 
     92 H92        22.1550   -3.2412   -7.5836 H         1 UNK         0.0819 
     93 H93        22.8420   -3.4586   -5.9801 H         1 UNK         0.0819 
     94 H94        23.0269   -1.3302   -4.6916 H         1 UNK         0.3041 
     95 H95        24.8528    1.5911   -3.8597 H         1 UNK         0.0784 
     96 H96        22.4833    2.3816   -3.9698 H         1 UNK         0.0793 
     97 H97        21.9354    0.8677   -3.2633 H         1 UNK         0.0793 
     98 H98        22.9502    1.9684   -2.3297 H         1 UNK         0.0793 
     99 H99        23.8463   -0.3612   -2.1492 H         1 UNK         0.3024 
    100 H100       25.2726   -1.7711   -1.1109 H         1 UNK         0.1171 
    101 H101       23.8949   -3.2204   -2.6282 H         1 UNK         0.0786 
    102 H102       25.0651   -4.1856   -1.7467 H         1 UNK         0.0786 
    103 H103       25.3505   -3.7832   -3.4393 H         1 UNK         0.0786 
    104 H104       27.4257   -3.3240   -2.1842 H         1 UNK         0.2977 
    105 H105       26.9535   -0.1666   -5.5978 H         1 UNK         0.3127 
    106 H106       29.0824    1.3519   -6.5528 H         1 UNK         0.0770 
    107 H107       26.7624    2.3439   -4.8266 H         1 UNK         0.0814 
    108 H108       28.3719    3.0414   -4.9186 H         1 UNK         0.0814 
    109 H109       28.1567    1.4438   -4.2226 H         1 UNK         0.0814 
    110 H110       25.6475    1.6971   -7.4179 H         1 UNK         0.2983 
    111 H111       25.8454    4.1317   -8.8600 H         1 UNK         0.0947 
    112 H112       23.6982    3.3449   -9.9047 H         1 UNK         0.0806 
    113 H113       23.6889    3.1352   -8.1618 H         1 UNK         0.0806 
    114 H114       23.9497    1.7455   -9.2144 H         1 UNK         0.0806 
    115 H115       27.0649    0.9841   -9.7311 H         1 UNK         0.3000 
    116 H116       27.3302    1.7684  -12.6156 H         1 UNK         0.0850 
    117 H117       27.4763   -0.6829  -13.0303 H         1 UNK         0.0810 
    118 H118       25.9493   -0.2568  -12.2740 H         1 UNK         0.0810 
    119 H119       27.2252   -1.0072  -11.3192 H         1 UNK         0.0810 
    120 H120       29.0143    0.1465   -9.8705 H         1 UNK         0.3040 
    121 H121       31.5907    0.2793  -11.3791 H         1 UNK         0.0766 
    122 H122       32.1633   -1.7104  -10.0361 H         1 UNK         0.0812 
    123 H123       30.6227   -1.9764  -10.8331 H         1 UNK         0.0812 
    124 H124       30.6698   -1.5673   -9.1200 H         1 UNK         0.0812 
    125 H125       30.2025    2.1986   -9.1672 H         1 UNK         0.3205 
    126 H126       30.8528    3.7245   -7.7339 H         1 UNK         0.0754 
    127 H127       33.1824    4.4793   -7.5612 H         1 UNK         0.0769 
    128 H128       32.7652    4.1892   -9.2421 H         1 UNK         0.0769 
    129 H129       33.7636    3.0314   -8.3638 H         1 UNK         0.0769 
    130 H130       32.6742    0.7180   -7.2032 H         1 UNK         0.2981 
    131 H131       33.0335    1.0338   -4.3882 H         1 UNK         0.0541 
    132 H132       30.5458   -1.0143   -6.1432 H         1 UNK         0.3459 
    133 H133       29.4435   -0.9945   -4.7913 H         1 UNK         0.3459 
    134 H134       34.3768   -0.5113   -5.8664 H         1 UNK         0.0612 
    135 H135       33.0037   -1.5745   -5.9812 H         1 UNK         0.0612 
    136 H136       34.4390   -3.5142   -5.2202 H         1 UNK         0.0624 
    137 H137       34.6763   -3.9158   -3.5427 H         1 UNK         0.0624 
@<TRIPOS>BOND
     1    1    2 1    
     2    1   72 1    
     3    1   73 1    
     4    1   74 1    
     5    2    3 2    
     6    2    4 am   BACKBONE|DICT|INTERRES
     7    4    5 1    
     8    4   75 1    
     9    5    6 1    
    10    5   35 1    
    11    5   76 1    
    12    6    7 1    
    13    6   77 1    
    14    6   78 1    
    15    7    8 1    
    16    8    9 1    
    17    8   79 1    
    18    8   80 1    
    19    9   10 ar   
    20    9   14 ar   
    21   10   11 ar   
    22   10   81 1    
    23   11   12 ar   
    24   11   71 1    
    25   12   13 ar   
    26   12   82 1    
    27   13   14 ar   
    28   13   15 1    
    29   14   83 1    
    30   15   16 1    
    31   15   84 1    
    32   15   85 1    
    33   16   17 1    
    34   17   18 1    
    35   17   86 1    
    36   17   87 1    
    37   18   19 1    
    38   18   37 1    
    39   18   88 1    
    40   19   20 am   BACKBONE|DICT|INTERRES
    41   19   89 1    
    42   20   21 2    
    43   20   22 1    
    44   22   23 1    
    45   22   24 1    
    46   22   90 1    
    47   23   91 1    
    48   23   92 1    
    49   23   93 1    
    50   24   25 am   BACKBONE|DICT|INTERRES
    51   24   94 1    
    52   25   26 2    
    53   25   27 1    
    54   27   28 1    
    55   27   29 1    
    56   27   95 1    
    57   28   96 1    
    58   28   97 1    
    59   28   98 1    
    60   29   30 am   BACKBONE|DICT|INTERRES
    61   29   99 1    
    62   30   31 2    
    63   30   32 1    
    64   32   33 1    
    65   32   34 1    
    66   32  100 1    
    67   33  101 1    
    68   33  102 1    
    69   33  103 1    
    70   34   35 am   BACKBONE|DICT|INTERRES
    71   34  104 1    
    72   35   36 2    
    73   37   38 2    
    74   37   39 am   BACKBONE|DICT|INTERRES
    75   39   40 1    
    76   39  105 1    
    77   40   41 1    
    78   40   42 1    
    79   40  106 1    
    80   41  107 1    
    81   41  108 1    
    82   41  109 1    
    83   42   43 2    
    84   42   44 am   BACKBONE|DICT|INTERRES
    85   44   45 1    
    86   44  110 1    
    87   45   46 1    
    88   45   47 1    
    89   45  111 1    
    90   46  112 1    
    91   46  113 1    
    92   46  114 1    
    93   47   48 2    
    94   47   49 am   BACKBONE|DICT|INTERRES
    95   49   50 1    
    96   49  115 1    
    97   50   51 1    
    98   50   52 1    
    99   50  116 1    
   100   51  117 1    
   101   51  118 1    
   102   51  119 1    
   103   52   53 2    
   104   52   54 am   BACKBONE|DICT|INTERRES
   105   54   55 1    
   106   54  120 1    
   107   55   56 1    
   108   55   57 1    
   109   55  121 1    
   110   56  122 1    
   111   56  123 1    
   112   56  124 1    
   113   57   58 2    
   114   57   59 am   BACKBONE|DICT|INTERRES
   115   59   60 1    
   116   59  125 1    
   117   60   61 1    
   118   60   62 1    
   119   60  126 1    
   120   61  127 1    
   121   61  128 1    
   122   61  129 1    
   123   62   63 2    
   124   62   64 am   BACKBONE|DICT|INTERRES
   125   64   65 1    
   126   64  130 1    
   127   65   66 1    
   128   65   69 1    
   129   65  131 1    
   130   66   67 am   BACKBONE|DICT|INTERRES
   131   66   68 2    
   132   67  132 1    
   133   67  133 1    
   134   69   70 1    
   135   69  134 1    
   136   69  135 1    
   137   70   71 1    
   138   71  136 1    
   139   71  137 1    
@<TRIPOS>SUBSTRUCTURE
     1 UNK         1 GROUP             0       ****    0 ROOT    
