@<TRIPOS>MOLECULE
3R137
137   139    1
SMALL
USER_CHARGES


@<TRIPOS>ATOM
      1 CA         24.8637   -6.4091   -3.8411 C.3       0 UNK        -0.2020 
      2 C          25.4236   -5.4929   -2.7642 C.2       0 UNK         0.4855 
      3 O          24.6544   -4.9018   -2.0056 O.2       0 UNK        -0.5197 
      4 N          26.7561   -5.3582   -2.7000 N.am      1 UNK        -0.4892 
      5 CA         27.4850   -4.5034   -1.7547 C.3       1 UNK         0.0835 
      6 C6         29.0155   -4.6639   -1.9238 C.3       12 UNK        -0.0855 
      7 S7         29.9288   -4.0851   -0.4580 S.3       12 UNK        -0.2931 
      8 C8         31.5754   -3.7609   -1.1759 C.3       12 UNK         0.0378 
      9 C9         31.6964   -2.4608   -1.9734 C.ar      12 UNK        -0.0802 
     10 C10        32.6167   -2.3968   -3.0255 C.ar      12 UNK        -0.0944 
     11 C11        32.8430   -1.1982   -3.7094 C.ar      12 UNK        -0.0787 
     12 C12        32.1279   -0.0552   -3.3423 C.ar      12 UNK        -0.0862 
     13 C13        31.1912   -0.1024   -2.3053 C.ar      12 UNK        -0.0733 
     14 C14        30.9813   -1.3069   -1.6247 C.ar      12 UNK        -0.0832 
     15 C15        30.4625    1.1640   -1.8697 C.3       12 UNK         0.0240 
     16 S16        29.5556    1.9750   -3.2266 S.3       12 UNK        -0.2522 
     17 C17        28.1465    0.8441   -3.4719 C.3       12 UNK        -0.0967 
     18 CA         27.8378    0.5738   -4.9674 C.3       5 UNK         0.0660 
     19 N          27.1590   -0.7187   -5.1326 N.am      5 UNK        -0.4015 
     20 C          26.7778   -1.2942   -6.2825 C.2       4 UNK         0.4946 
     21 O          26.9978   -0.8109   -7.3913 O.2       4 UNK        -0.5353 
     22 CA         25.9388   -2.5785   -6.1705 C.3       4 UNK         0.0277 
     23 CB         26.8302   -3.8270   -6.1160 C.3       4 UNK        -0.1981 
     24 N          25.0636   -2.5484   -4.9959 N.am      4 UNK        -0.4209 
     25 C          23.8863   -1.9085   -4.9462 C.2       3 UNK         0.4942 
     26 O          23.3851   -1.3297   -5.9091 O.2       3 UNK        -0.5208 
     27 CA         23.1472   -1.8914   -3.5967 C.3       3 UNK         0.0250 
     28 CB         22.1491   -3.0570   -3.5104 C.3       3 UNK        -0.1990 
     29 N          24.0615   -1.9348   -2.4520 N.am      3 UNK        -0.4232 
     30 C          24.7938   -0.8861   -2.0444 C.2       2 UNK         0.4993 
     31 O          24.7241    0.2322   -2.5541 O.2       2 UNK        -0.5286 
     32 CA         25.8081   -1.1260   -0.9088 C.3       2 UNK         0.0209 
     33 CB         25.1685   -0.8242    0.4555 C.3       2 UNK        -0.1931 
     34 N          26.3798   -2.4775   -0.8905 N.am      2 UNK        -0.4546 
     35 C          27.0522   -3.0329   -1.9077 C.2       1 UNK         0.5154 
     36 O          27.2750   -2.4524   -2.9701 O.2       1 UNK        -0.5181 
     37 C          27.0843    1.7623   -5.6167 C.2       5 UNK         0.5014 
     38 O          27.7088    2.7752   -5.9322 O.2       5 UNK        -0.5248 
     39 N          25.7743    1.6139   -5.8723 N.am      6 UNK        -0.4434 
     40 CA         24.9605    2.5340   -6.6746 C.3       6 UNK         0.0363 
     41 CB         23.4974    2.0665   -6.6498 C.3       6 UNK        -0.1936 
     42 C          25.4488    2.6982   -8.1307 C.2       6 UNK         0.5081 
     43 O          25.1594    3.7260   -8.7430 O.2       6 UNK        -0.5248 
     44 N          26.2069    1.7194   -8.6505 N.am      7 UNK        -0.4718 
     45 CA         26.9057    1.7897   -9.9384 C.3       7 UNK         0.0273 
     46 CB         27.1010    0.3623  -10.4788 C.3       7 UNK        -0.1935 
     47 C          28.2538    2.5399   -9.8604 C.2       7 UNK         0.5018 
     48 O          28.9709    2.5790  -10.8621 O.2       7 UNK        -0.5186 
     49 N          28.5867    3.1105   -8.6917 N.am      8 UNK        -0.4240 
     50 CA         29.8124    3.8452   -8.3724 C.3       8 UNK         0.0235 
     51 CB         29.9025    5.1564   -9.1888 C.3       8 UNK        -0.2000 
     52 C          31.0475    2.9333   -8.4721 C.2       8 UNK         0.4941 
     53 O          31.0131    1.8219   -7.9416 O.2       8 UNK        -0.5273 
     54 N          32.1040    3.4023   -9.1513 N.am      9 UNK        -0.4262 
     55 CA         33.4055    2.7401   -9.3058 C.3       9 UNK         0.0264 
     56 CB         34.3567    3.6869  -10.0573 C.3       9 UNK        -0.1955 
     57 C          33.3760    1.3556   -9.9838 C.2       9 UNK         0.5031 
     58 O          34.3714    0.6344   -9.9008 O.2       9 UNK        -0.5390 
     59 N          32.2577    0.9978  -10.6311 N.am      10 UNK        -0.4204 
     60 CA         32.0026   -0.3470  -11.1493 C.3       10 UNK         0.0237 
     61 CB         30.7780   -0.3122  -12.0767 C.3       10 UNK        -0.1985 
     62 C          31.8077   -1.3928  -10.0339 C.2       10 UNK         0.4970 
     63 O          32.1623   -2.5531  -10.2483 O.2       10 UNK        -0.4914 
     64 N          31.2710   -0.9667   -8.8786 N.am      11 UNK        -0.4285 
     65 CA         31.0127   -1.7824   -7.6788 C.3       11 UNK         0.1007 
     66 C          30.0953   -3.0169   -7.9492 C.2       11 UNK         0.5703 
     67 N          30.1676   -4.0660   -7.1382 N.am      11 UNK        -0.7361 
     68 O          29.2782   -3.0199   -8.8681 O.2       11 UNK        -0.4986 
     69 C69        32.3259   -2.1247   -6.9125 C.3       12 UNK        -0.0947 
     70 S70        33.2517   -0.6326   -6.4182 S.3       12 UNK        -0.2240 
     71 C71        33.9121   -1.1204   -4.7932 C.3       12 UNK         0.0194 
     72 H72        25.6520   -6.9102   -4.4023 H         1 UNK         0.0906 
     73 H73        24.2314   -7.1734   -3.3901 H         1 UNK         0.0906 
     74 H74        24.2577   -5.8368   -4.5430 H         1 UNK         0.0906 
     75 H75        27.3310   -5.8598   -3.3619 H         1 UNK         0.3140 
     76 H76        27.2118   -4.8461   -0.7541 H         1 UNK         0.1085 
     77 H77        29.3736   -4.1490   -2.8185 H         1 UNK         0.0836 
     78 H78        29.2701   -5.7162   -2.0603 H         1 UNK         0.0836 
     79 H79        31.8587   -4.6148   -1.7937 H         1 UNK         0.0731 
     80 H80        32.2989   -3.7217   -0.3607 H         1 UNK         0.0731 
     81 H81        33.1899   -3.2758   -3.2879 H         1 UNK         0.1312 
     82 H82        32.3118    0.8783   -3.8569 H         1 UNK         0.1406 
     83 H83        30.2845   -1.3353   -0.7985 H         1 UNK         0.1631 
     84 H84        31.1977    1.8671   -1.4762 H         1 UNK         0.0717 
     85 H85        29.7688    0.9589   -1.0526 H         1 UNK         0.0717 
     86 H86        28.3923   -0.0931   -2.9719 H         1 UNK         0.0934 
     87 H87        27.2733    1.2393   -2.9495 H         1 UNK         0.0934 
     88 H88        28.7852    0.4761   -5.5023 H         1 UNK         0.0739 
     89 H89        27.0211   -1.2550   -4.2778 H         1 UNK         0.3093 
     90 H90        25.3182   -2.6503   -7.0667 H         1 UNK         0.0818 
     91 H91        27.5651   -3.7748   -5.3118 H         1 UNK         0.0819 
     92 H92        26.2403   -4.7327   -5.9795 H         1 UNK         0.0819 
     93 H93        27.3729   -3.9421   -7.0532 H         1 UNK         0.0819 
     94 H94        25.4390   -2.9389   -4.1423 H         1 UNK         0.3041 
     95 H95        22.5786   -0.9599   -3.5462 H         1 UNK         0.0784 
     96 H96        21.4215   -3.0056   -4.3216 H         1 UNK         0.0793 
     97 H97        22.6450   -4.0249   -3.5813 H         1 UNK         0.0793 
     98 H98        21.5916   -3.0336   -2.5740 H         1 UNK         0.0793 
     99 H99        24.1961   -2.8365   -2.0052 H         1 UNK         0.3024 
    100 H100       26.6318   -0.4256   -1.0609 H         1 UNK         0.1171 
    101 H101       25.9003   -0.8897    1.2610 H         1 UNK         0.0786 
    102 H102       24.7552    0.1854    0.4780 H         1 UNK         0.0786 
    103 H103       24.3549   -1.5146    0.6822 H         1 UNK         0.0786 
    104 H104       26.2053   -3.0306   -0.0634 H         1 UNK         0.2977 
    105 H105       25.3258    0.7585   -5.5764 H         1 UNK         0.3127 
    106 H106       25.0155    3.5161   -6.2006 H         1 UNK         0.0770 
    107 H107       23.3777    1.0961   -7.1332 H         1 UNK         0.0814 
    108 H108       22.8539    2.7728   -7.1761 H         1 UNK         0.0814 
    109 H109       23.1209    1.9831   -5.6300 H         1 UNK         0.0814 
    110 H110       26.4035    0.8934   -8.0888 H         1 UNK         0.2983 
    111 H111       26.2789    2.3344  -10.6476 H         1 UNK         0.0947 
    112 H112       27.4773    0.3810  -11.5021 H         1 UNK         0.0806 
    113 H113       26.1623   -0.1915  -10.4921 H         1 UNK         0.0806 
    114 H114       27.8149   -0.2032   -9.8779 H         1 UNK         0.0806 
    115 H115       27.9767    2.9575   -7.8948 H         1 UNK         0.3000 
    116 H116       29.7318    4.1196   -7.3195 H         1 UNK         0.0850 
    117 H117       30.7322    5.7788   -8.8513 H         1 UNK         0.0810 
    118 H118       28.9965    5.7506   -9.0682 H         1 UNK         0.0810 
    119 H119       30.0324    4.9734  -10.2561 H         1 UNK         0.0810 
    120 H120       32.0192    4.3168   -9.5713 H         1 UNK         0.3040 
    121 H121       33.8038    2.5829   -8.3012 H         1 UNK         0.0766 
    122 H122       34.4792    4.6321   -9.5281 H         1 UNK         0.0812 
    123 H123       33.9950    3.9067  -11.0626 H         1 UNK         0.0812 
    124 H124       35.3497    3.2462  -10.1582 H         1 UNK         0.0812 
    125 H125       31.4880    1.6533  -10.6573 H         1 UNK         0.3205 
    126 H126       32.8687   -0.6517  -11.7408 H         1 UNK         0.0754 
    127 H127       30.5813   -1.2976  -12.5012 H         1 UNK         0.0769 
    128 H128       30.9271    0.3764  -12.9086 H         1 UNK         0.0769 
    129 H129       29.8805   -0.0027  -11.5416 H         1 UNK         0.0769 
    130 H130       31.0626    0.0205   -8.7681 H         1 UNK         0.2981 
    131 H131       30.4149   -1.1426   -7.0283 H         1 UNK         0.0541 
    132 H132       30.8208   -4.0891   -6.3726 H         1 UNK         0.3459 
    133 H133       29.5751   -4.8605   -7.3170 H         1 UNK         0.3459 
    134 H134       32.1046   -2.6927   -6.0088 H         1 UNK         0.0612 
    135 H135       32.9771   -2.7534   -7.5216 H         1 UNK         0.0612 
    136 H136       34.6617   -0.3880   -4.4911 H         1 UNK         0.0624 
    137 H137       34.4381   -2.0708   -4.8964 H         1 UNK         0.0624 
@<TRIPOS>BOND
     1    1    2 1    
     2    1   72 1    
     3    1   73 1    
     4    1   74 1    
     5    2    3 2    
     6    2    4 am   BACKBONE|DICT|INTERRES
     7    4    5 1    
     8    4   75 1    
     9    5    6 1    
    10    5   35 1    
    11    5   76 1    
    12    6    7 1    
    13    6   77 1    
    14    6   78 1    
    15    7    8 1    
    16    8    9 1    
    17    8   79 1    
    18    8   80 1    
    19    9   10 ar   
    20    9   14 ar   
    21   10   11 ar   
    22   10   81 1    
    23   11   12 ar   
    24   11   71 1    
    25   12   13 ar   
    26   12   82 1    
    27   13   14 ar   
    28   13   15 1    
    29   14   83 1    
    30   15   16 1    
    31   15   84 1    
    32   15   85 1    
    33   16   17 1    
    34   17   18 1    
    35   17   86 1    
    36   17   87 1    
    37   18   19 1    
    38   18   37 1    
    39   18   88 1    
    40   19   20 am   BACKBONE|DICT|INTERRES
    41   19   89 1    
    42   20   21 2    
    43   20   22 1    
    44   22   23 1    
    45   22   24 1    
    46   22   90 1    
    47   23   91 1    
    48   23   92 1    
    49   23   93 1    
    50   24   25 am   BACKBONE|DICT|INTERRES
    51   24   94 1    
    52   25   26 2    
    53   25   27 1    
    54   27   28 1    
    55   27   29 1    
    56   27   95 1    
    57   28   96 1    
    58   28   97 1    
    59   28   98 1    
    60   29   30 am   BACKBONE|DICT|INTERRES
    61   29   99 1    
    62   30   31 2    
    63   30   32 1    
    64   32   33 1    
    65   32   34 1    
    66   32  100 1    
    67   33  101 1    
    68   33  102 1    
    69   33  103 1    
    70   34   35 am   BACKBONE|DICT|INTERRES
    71   34  104 1    
    72   35   36 2    
    73   37   38 2    
    74   37   39 am   BACKBONE|DICT|INTERRES
    75   39   40 1    
    76   39  105 1    
    77   40   41 1    
    78   40   42 1    
    79   40  106 1    
    80   41  107 1    
    81   41  108 1    
    82   41  109 1    
    83   42   43 2    
    84   42   44 am   BACKBONE|DICT|INTERRES
    85   44   45 1    
    86   44  110 1    
    87   45   46 1    
    88   45   47 1    
    89   45  111 1    
    90   46  112 1    
    91   46  113 1    
    92   46  114 1    
    93   47   48 2    
    94   47   49 am   BACKBONE|DICT|INTERRES
    95   49   50 1    
    96   49  115 1    
    97   50   51 1    
    98   50   52 1    
    99   50  116 1    
   100   51  117 1    
   101   51  118 1    
   102   51  119 1    
   103   52   53 2    
   104   52   54 am   BACKBONE|DICT|INTERRES
   105   54   55 1    
   106   54  120 1    
   107   55   56 1    
   108   55   57 1    
   109   55  121 1    
   110   56  122 1    
   111   56  123 1    
   112   56  124 1    
   113   57   58 2    
   114   57   59 am   BACKBONE|DICT|INTERRES
   115   59   60 1    
   116   59  125 1    
   117   60   61 1    
   118   60   62 1    
   119   60  126 1    
   120   61  127 1    
   121   61  128 1    
   122   61  129 1    
   123   62   63 2    
   124   62   64 am   BACKBONE|DICT|INTERRES
   125   64   65 1    
   126   64  130 1    
   127   65   66 1    
   128   65   69 1    
   129   65  131 1    
   130   66   67 am   BACKBONE|DICT|INTERRES
   131   66   68 2    
   132   67  132 1    
   133   67  133 1    
   134   69   70 1    
   135   69  134 1    
   136   69  135 1    
   137   70   71 1    
   138   71  136 1    
   139   71  137 1    
@<TRIPOS>SUBSTRUCTURE
     1 UNK         1 GROUP             0       ****    0 ROOT    
