@<TRIPOS>MOLECULE
3R137
137   139    1
SMALL
USER_CHARGES


@<TRIPOS>ATOM
      1 CA         24.7115   -3.8539    2.5277 C.3       0 UNK        -0.2020 
      2 C          25.2856   -2.4546    2.3667 C.2       0 UNK         0.4855 
      3 O          24.8626   -1.5340    3.0660 O.2       0 UNK        -0.5197 
      4 N          26.2453   -2.2856    1.4479 N.am      1 UNK        -0.4892 
      5 CA         26.9008   -1.0061    1.1421 C.3       1 UNK         0.0835 
      6 C6         28.2658   -1.2285    0.4427 C.3       12 UNK        -0.0855 
      7 S7         28.1525   -2.1002   -1.1610 S.3       12 UNK        -0.2931 
      8 C8         29.8641   -2.6899   -1.3476 C.3       12 UNK         0.0378 
      9 C9         30.2688   -2.7697   -2.8124 C.ar      12 UNK        -0.0802 
     10 C10        31.1335   -1.8139   -3.3564 C.ar      12 UNK        -0.0944 
     11 C11        31.5189   -1.8888   -4.6980 C.ar      12 UNK        -0.0787 
     12 C12        31.0342   -2.9264   -5.4984 C.ar      12 UNK        -0.0862 
     13 C13        30.1723   -3.8883   -4.9660 C.ar      12 UNK        -0.0733 
     14 C14        29.7906   -3.8041   -3.6228 C.ar      12 UNK        -0.0832 
     15 C15        29.6773   -5.0370   -5.8292 C.3       12 UNK         0.0240 
     16 S16        28.0756   -4.6606   -6.6009 S.3       12 UNK        -0.2522 
     17 C17        28.5571   -3.7524   -8.1161 C.3       12 UNK        -0.0967 
     18 CA         27.8414   -2.3882   -8.3003 C.3       5 UNK         0.0660 
     19 N          26.4129   -2.4777   -7.9882 N.am      5 UNK        -0.4015 
     20 C          25.4812   -1.5747   -8.3141 C.2       4 UNK         0.4946 
     21 O          25.7079   -0.5678   -8.9807 O.2       4 UNK        -0.5353 
     22 CA         24.0705   -1.8057   -7.7438 C.3       4 UNK         0.0277 
     23 CB         23.2615   -2.7350   -8.6622 C.3       4 UNK        -0.1981 
     24 N          24.0774   -2.3409   -6.3757 N.am      4 UNK        -0.4209 
     25 C          24.6379   -1.7229   -5.3269 C.2       3 UNK         0.4942 
     26 O          25.2178   -0.6379   -5.4082 O.2       3 UNK        -0.5208 
     27 CA         24.6175   -2.4790   -3.9897 C.3       3 UNK         0.0250 
     28 CB         25.7917   -3.4696   -3.9217 C.3       3 UNK        -0.1990 
     29 N          24.7143   -1.5677   -2.8496 N.am      3 UNK        -0.4232 
     30 C          23.7379   -0.7483   -2.4337 C.2       2 UNK         0.4993 
     31 O          22.6191   -0.7044   -2.9490 O.2       2 UNK        -0.5286 
     32 CA         24.0584    0.1353   -1.2154 C.3       2 UNK         0.0209 
     33 CB         22.8003    0.5812   -0.4448 C.3       2 UNK        -0.1931 
     34 N          24.9633   -0.5722   -0.3093 N.am      2 UNK        -0.4546 
     35 C          26.0050   -0.0358    0.3372 C.2       1 UNK         0.5154 
     36 O          26.2851    1.1636    0.3040 O.2       1 UNK        -0.5181 
     37 C          28.5586   -1.2392   -7.5578 C.2       5 UNK         0.5014 
     38 O          29.5251   -0.6942   -8.0959 O.2       5 UNK        -0.5248 
     39 N          28.0712   -0.8607   -6.3672 N.am      6 UNK        -0.4434 
     40 CA         28.5581    0.3009   -5.6228 C.3       6 UNK         0.0363 
     41 CB         28.1890    0.1739   -4.1370 C.3       6 UNK        -0.1936 
     42 C          28.0000    1.5997   -6.2184 C.2       6 UNK         0.5081 
     43 O          28.7586    2.5485   -6.4099 O.2       6 UNK        -0.5248 
     44 N          26.6986    1.6034   -6.5441 N.am      7 UNK        -0.4718 
     45 CA         25.9963    2.7155   -7.1930 C.3       7 UNK         0.0273 
     46 CB         24.4904    2.4128   -7.2413 C.3       7 UNK        -0.1935 
     47 C          26.5384    3.0332   -8.5982 C.2       7 UNK         0.5018 
     48 O          26.7013    4.2067   -8.9336 O.2       7 UNK        -0.5186 
     49 N          26.8449    1.9854   -9.3759 N.am      8 UNK        -0.4240 
     50 CA         27.5016    2.0710  -10.6838 C.3       8 UNK         0.0235 
     51 CB         27.2920    0.7467  -11.4372 C.3       8 UNK        -0.2000 
     52 C          29.0047    2.3997  -10.6028 C.2       8 UNK         0.4941 
     53 O          29.5919    2.7217  -11.6364 O.2       8 UNK        -0.5273 
     54 N          29.5952    2.3032   -9.4009 N.am      9 UNK        -0.4262 
     55 CA         31.0085    2.5122   -9.0748 C.3       9 UNK         0.0264 
     56 CB         31.4017    3.9937   -9.2562 C.3       9 UNK        -0.1955 
     57 C          31.9318    1.5399   -9.8313 C.2       9 UNK         0.5031 
     58 O          32.8550    1.9716  -10.5245 O.2       9 UNK        -0.5390 
     59 N          31.6617    0.2347   -9.6827 N.am      10 UNK        -0.4204 
     60 CA         32.4520   -0.8510  -10.2754 C.3       10 UNK         0.0237 
     61 CB         31.6800   -2.1725  -10.1302 C.3       10 UNK        -0.1985 
     62 C          33.8625   -0.9880   -9.6694 C.2       10 UNK         0.4970 
     63 O          34.7568   -1.5091  -10.3368 O.2       10 UNK        -0.4914 
     64 N          34.0285   -0.5325   -8.4220 N.am      11 UNK        -0.4285 
     65 CA         35.2981   -0.4870   -7.6876 C.3       11 UNK         0.1007 
     66 C          36.2875    0.5377   -8.3044 C.2       11 UNK         0.5703 
     67 N          37.5518    0.1690   -8.4604 N.am      11 UNK        -0.7361 
     68 O          35.9276    1.6763   -8.5968 O.2       11 UNK        -0.4986 
     69 C69        35.0586   -0.1814   -6.1866 C.3       12 UNK        -0.0947 
     70 S70        34.1626   -1.5263   -5.3449 S.3       12 UNK        -0.2240 
     71 C71        32.4711   -0.8619   -5.2860 C.3       12 UNK         0.0194 
     72 H72        24.8678   -4.2083    3.5462 H         1 UNK         0.0906 
     73 H73        23.6397   -3.8448    2.3310 H         1 UNK         0.0906 
     74 H74        25.1753   -4.5669    1.8462 H         1 UNK         0.0906 
     75 H75        26.5653   -3.0739    0.9014 H         1 UNK         0.3140 
     76 H76        27.1026   -0.5059    2.0923 H         1 UNK         0.1085 
     77 H77        28.7733   -0.2747    0.2836 H         1 UNK         0.0836 
     78 H78        28.9171   -1.8002    1.1062 H         1 UNK         0.0836 
     79 H79        30.5431   -2.0257   -0.8103 H         1 UNK         0.0731 
     80 H80        29.9609   -3.6708   -0.8801 H         1 UNK         0.0731 
     81 H81        31.5101   -1.0130   -2.7350 H         1 UNK         0.1312 
     82 H82        31.3412   -2.9889   -6.5329 H         1 UNK         0.1406 
     83 H83        29.1210   -4.5442   -3.2056 H         1 UNK         0.1631 
     84 H84        29.5625   -5.9305   -5.2138 H         1 UNK         0.0717 
     85 H85        30.4122   -5.2939   -6.5937 H         1 UNK         0.0717 
     86 H86        29.6406   -3.6385   -8.1658 H         1 UNK         0.0934 
     87 H87        28.3043   -4.3967   -8.9597 H         1 UNK         0.0934 
     88 H88        27.9125   -2.1342   -9.3602 H         1 UNK         0.0739 
     89 H89        26.1422   -3.2771   -7.4335 H         1 UNK         0.3093 
     90 H90        23.5688   -0.8364   -7.7133 H         1 UNK         0.0818 
     91 H91        22.2295   -2.8282   -8.3233 H         1 UNK         0.0819 
     92 H92        23.2309   -2.3449   -9.6808 H         1 UNK         0.0819 
     93 H93        23.6920   -3.7360   -8.7097 H         1 UNK         0.0819 
     94 H94        23.6263   -3.2337   -6.2337 H         1 UNK         0.3041 
     95 H95        23.6789   -3.0318   -3.9104 H         1 UNK         0.0784 
     96 H96        25.7171   -4.2218   -4.7075 H         1 UNK         0.0793 
     97 H97        26.7542   -2.9682   -4.0381 H         1 UNK         0.0793 
     98 H98        25.8087   -4.0026   -2.9708 H         1 UNK         0.0793 
     99 H99        25.6156   -1.5085   -2.3974 H         1 UNK         0.3024 
    100 H100       24.5552    1.0246   -1.6106 H         1 UNK         0.1171 
    101 H101       22.1280    1.1533   -1.0856 H         1 UNK         0.0786 
    102 H102       23.0596    1.2193    0.4002 H         1 UNK         0.0786 
    103 H103       22.2417   -0.2730   -0.0606 H         1 UNK         0.0786 
    104 H104       24.8131   -1.5672   -0.2139 H         1 UNK         0.2977 
    105 H105       27.2355   -1.3041   -6.0118 H         1 UNK         0.3127 
    106 H106       29.6473    0.3287   -5.6960 H         1 UNK         0.0770 
    107 H107       27.1213    0.2975   -3.9586 H         1 UNK         0.0814 
    108 H108       28.7047    0.9298   -3.5441 H         1 UNK         0.0814 
    109 H109       28.4787   -0.7991   -3.7471 H         1 UNK         0.0814 
    110 H110       26.1427    0.7856   -6.3049 H         1 UNK         0.2983 
    111 H111       26.1467    3.6032   -6.5747 H         1 UNK         0.0947 
    112 H112       23.9378    3.2516   -7.6666 H         1 UNK         0.0806 
    113 H113       24.0894    2.2310   -6.2438 H         1 UNK         0.0806 
    114 H114       24.2743    1.5367   -7.8528 H         1 UNK         0.0806 
    115 H115       26.5845    1.0520   -9.0603 H         1 UNK         0.3000 
    116 H116       27.0238    2.8699  -11.2549 H         1 UNK         0.0850 
    117 H117       27.7258    0.7900  -12.4371 H         1 UNK         0.0810 
    118 H118       26.2321    0.5197  -11.5540 H         1 UNK         0.0810 
    119 H119       27.7581   -0.0895  -10.9146 H         1 UNK         0.0810 
    120 H120       29.0127    2.0438   -8.6150 H         1 UNK         0.3040 
    121 H121       31.1148    2.2742   -8.0152 H         1 UNK         0.0766 
    122 H122       32.4250    4.1683   -8.9216 H         1 UNK         0.0812 
    123 H123       30.7535    4.6482   -8.6733 H         1 UNK         0.0812 
    124 H124       31.3438    4.3061  -10.2993 H         1 UNK         0.0812 
    125 H125       30.8624   -0.0426   -9.1103 H         1 UNK         0.3205 
    126 H126       32.5702   -0.6372  -11.3398 H         1 UNK         0.0754 
    127 H127       32.2085   -2.9904  -10.6218 H         1 UNK         0.0769 
    128 H128       30.6897   -2.1075  -10.5816 H         1 UNK         0.0769 
    129 H129       31.5548   -2.4478   -9.0826 H         1 UNK         0.0769 
    130 H130       33.2414   -0.0978   -7.9695 H         1 UNK         0.2981 
    131 H131       35.7507   -1.4781   -7.7630 H         1 UNK         0.0541 
    132 H132       37.8593   -0.7585   -8.2117 H         1 UNK         0.3459 
    133 H133       38.2106    0.8289   -8.8434 H         1 UNK         0.3459 
    134 H134       36.0115   -0.0633   -5.6671 H         1 UNK         0.0612 
    135 H135       34.5244    0.7619   -6.0572 H         1 UNK         0.0612 
    136 H136       32.1396   -0.5927   -6.2894 H         1 UNK         0.0624 
    137 H137       32.4600    0.0556   -4.6956 H         1 UNK         0.0624 
@<TRIPOS>BOND
     1    1    2 1    
     2    1   72 1    
     3    1   73 1    
     4    1   74 1    
     5    2    3 2    
     6    2    4 am   BACKBONE|DICT|INTERRES
     7    4    5 1    
     8    4   75 1    
     9    5    6 1    
    10    5   35 1    
    11    5   76 1    
    12    6    7 1    
    13    6   77 1    
    14    6   78 1    
    15    7    8 1    
    16    8    9 1    
    17    8   79 1    
    18    8   80 1    
    19    9   10 ar   
    20    9   14 ar   
    21   10   11 ar   
    22   10   81 1    
    23   11   12 ar   
    24   11   71 1    
    25   12   13 ar   
    26   12   82 1    
    27   13   14 ar   
    28   13   15 1    
    29   14   83 1    
    30   15   16 1    
    31   15   84 1    
    32   15   85 1    
    33   16   17 1    
    34   17   18 1    
    35   17   86 1    
    36   17   87 1    
    37   18   19 1    
    38   18   37 1    
    39   18   88 1    
    40   19   20 am   BACKBONE|DICT|INTERRES
    41   19   89 1    
    42   20   21 2    
    43   20   22 1    
    44   22   23 1    
    45   22   24 1    
    46   22   90 1    
    47   23   91 1    
    48   23   92 1    
    49   23   93 1    
    50   24   25 am   BACKBONE|DICT|INTERRES
    51   24   94 1    
    52   25   26 2    
    53   25   27 1    
    54   27   28 1    
    55   27   29 1    
    56   27   95 1    
    57   28   96 1    
    58   28   97 1    
    59   28   98 1    
    60   29   30 am   BACKBONE|DICT|INTERRES
    61   29   99 1    
    62   30   31 2    
    63   30   32 1    
    64   32   33 1    
    65   32   34 1    
    66   32  100 1    
    67   33  101 1    
    68   33  102 1    
    69   33  103 1    
    70   34   35 am   BACKBONE|DICT|INTERRES
    71   34  104 1    
    72   35   36 2    
    73   37   38 2    
    74   37   39 am   BACKBONE|DICT|INTERRES
    75   39   40 1    
    76   39  105 1    
    77   40   41 1    
    78   40   42 1    
    79   40  106 1    
    80   41  107 1    
    81   41  108 1    
    82   41  109 1    
    83   42   43 2    
    84   42   44 am   BACKBONE|DICT|INTERRES
    85   44   45 1    
    86   44  110 1    
    87   45   46 1    
    88   45   47 1    
    89   45  111 1    
    90   46  112 1    
    91   46  113 1    
    92   46  114 1    
    93   47   48 2    
    94   47   49 am   BACKBONE|DICT|INTERRES
    95   49   50 1    
    96   49  115 1    
    97   50   51 1    
    98   50   52 1    
    99   50  116 1    
   100   51  117 1    
   101   51  118 1    
   102   51  119 1    
   103   52   53 2    
   104   52   54 am   BACKBONE|DICT|INTERRES
   105   54   55 1    
   106   54  120 1    
   107   55   56 1    
   108   55   57 1    
   109   55  121 1    
   110   56  122 1    
   111   56  123 1    
   112   56  124 1    
   113   57   58 2    
   114   57   59 am   BACKBONE|DICT|INTERRES
   115   59   60 1    
   116   59  125 1    
   117   60   61 1    
   118   60   62 1    
   119   60  126 1    
   120   61  127 1    
   121   61  128 1    
   122   61  129 1    
   123   62   63 2    
   124   62   64 am   BACKBONE|DICT|INTERRES
   125   64   65 1    
   126   64  130 1    
   127   65   66 1    
   128   65   69 1    
   129   65  131 1    
   130   66   67 am   BACKBONE|DICT|INTERRES
   131   66   68 2    
   132   67  132 1    
   133   67  133 1    
   134   69   70 1    
   135   69  134 1    
   136   69  135 1    
   137   70   71 1    
   138   71  136 1    
   139   71  137 1    
@<TRIPOS>SUBSTRUCTURE
     1 UNK         1 GROUP             0       ****    0 ROOT    
