@<TRIPOS>MOLECULE
3R137
137   139    1
SMALL
USER_CHARGES


@<TRIPOS>ATOM
      1 CA         25.3255   -5.9439   -3.2075 C.3       0 UNK        -0.2020 
      2 C          25.4311   -4.8263   -2.1808 C.2       0 UNK         0.4855 
      3 O          24.4826   -4.5895   -1.4330 O.2       0 UNK        -0.5197 
      4 N          26.5818   -4.1465   -2.1304 N.am      1 UNK        -0.4892 
      5 CA         26.8529   -3.0300   -1.2202 C.3       1 UNK         0.0835 
      6 C6         28.3678   -2.7172   -1.1277 C.3       12 UNK        -0.0855 
      7 S7         29.3574   -4.1757   -0.6489 S.3       12 UNK        -0.2931 
      8 C8         30.9877   -3.7901   -1.3754 C.3       12 UNK         0.0378 
      9 C9         30.9446   -3.5753   -2.8853 C.ar      12 UNK        -0.0802 
     10 C10        31.4956   -2.4163   -3.4407 C.ar      12 UNK        -0.0944 
     11 C11        31.4629   -2.2039   -4.8220 C.ar      12 UNK        -0.0787 
     12 C12        30.8658   -3.1572   -5.6508 C.ar      12 UNK        -0.0862 
     13 C13        30.3102   -4.3208   -5.1095 C.ar      12 UNK        -0.0733 
     14 C14        30.3645   -4.5295   -3.7276 C.ar      12 UNK        -0.0832 
     15 C15        29.6556   -5.3599   -6.0115 C.3       12 UNK         0.0240 
     16 S16        28.3181   -4.6748   -7.0444 S.3       12 UNK        -0.2522 
     17 C17        27.1774   -3.9734   -5.8037 C.3       12 UNK        -0.0967 
     18 CA         26.6089   -2.5983   -6.2327 C.3       5 UNK         0.0660 
     19 N          25.3405   -2.2956   -5.5615 N.am      5 UNK        -0.4015 
     20 C          24.1368   -2.6071   -6.0605 C.2       4 UNK         0.4946 
     21 O          23.9696   -3.2139   -7.1197 O.2       4 UNK        -0.5353 
     22 CA         22.8972   -2.1757   -5.2587 C.3       4 UNK         0.0277 
     23 CB         22.4628   -3.2822   -4.2864 C.3       4 UNK        -0.1981 
     24 N          23.0659   -0.9248   -4.5187 N.am      4 UNK        -0.4209 
     25 C          23.2085    0.2896   -5.0617 C.2       3 UNK         0.4942 
     26 O          23.2610    0.4886   -6.2747 O.2       3 UNK        -0.5208 
     27 CA         23.3066    1.4936   -4.1036 C.3       3 UNK         0.0250 
     28 CB         21.9049    2.0156   -3.7324 C.3       3 UNK        -0.1990 
     29 N          24.1332    1.2759   -2.9056 N.am      3 UNK        -0.4232 
     30 C          23.9396    0.4241   -1.8875 C.2       2 UNK         0.4993 
     31 O          22.9663   -0.3250   -1.7791 O.2       2 UNK        -0.5286 
     32 CA         25.0539    0.3695   -0.8292 C.3       2 UNK         0.0209 
     33 CB         24.5234    0.8407    0.5351 C.3       2 UNK        -0.1931 
     34 N          25.6562   -0.9617   -0.6783 N.am      2 UNK        -0.4546 
     35 C          26.0918   -1.7648   -1.6613 C.2       1 UNK         0.5154 
     36 O          25.9874   -1.5135   -2.8679 O.2       1 UNK        -0.5181 
     37 C          27.6210   -1.4448   -6.0890 C.2       5 UNK         0.5014 
     38 O          28.3773   -1.1965   -7.0271 O.2       5 UNK        -0.5248 
     39 N          27.5866   -0.6988   -4.9732 N.am      6 UNK        -0.4434 
     40 CA         28.4476    0.4647   -4.7114 C.3       6 UNK         0.0363 
     41 CB         28.2436    0.9288   -3.2613 C.3       6 UNK        -0.1936 
     42 C          28.2638    1.6473   -5.6867 C.2       6 UNK         0.5081 
     43 O          29.0945    2.5557   -5.6936 O.2       6 UNK        -0.5248 
     44 N          27.1910    1.6244   -6.4881 N.am      7 UNK        -0.4718 
     45 CA         26.9359    2.5711   -7.5732 C.3       7 UNK         0.0273 
     46 CB         25.4238    2.6072   -7.8501 C.3       7 UNK        -0.1935 
     47 C          27.7132    2.2510   -8.8667 C.2       7 UNK         0.5018 
     48 O          27.7301    3.0985   -9.7612 O.2       7 UNK        -0.5186 
     49 N          28.3141    1.0538   -8.9780 N.am      8 UNK        -0.4240 
     50 CA         29.0983    0.6313  -10.1433 C.3       8 UNK         0.0235 
     51 CB         29.4137   -0.8696  -10.0387 C.3       8 UNK        -0.2000 
     52 C          30.3996    1.4378  -10.2608 C.2       8 UNK         0.4941 
     53 O          31.0953    1.6088   -9.2590 O.2       8 UNK        -0.5273 
     54 N          30.7315    1.8788  -11.4819 N.am      9 UNK        -0.4262 
     55 CA         31.8441    2.7886  -11.7981 C.3       9 UNK         0.0264 
     56 CB         31.8373    3.0755  -13.3092 C.3       9 UNK        -0.1955 
     57 C          33.2479    2.3348  -11.3472 C.2       9 UNK         0.5031 
     58 O          34.1478    3.1721  -11.2626 O.2       9 UNK        -0.5390 
     59 N          33.4149    1.0368  -11.0639 N.am      10 UNK        -0.4204 
     60 CA         34.6372    0.4442  -10.5241 C.3       10 UNK         0.0237 
     61 CB         34.5261   -1.0879  -10.5952 C.3       10 UNK        -0.1985 
     62 C          34.9673    0.8859   -9.0852 C.2       10 UNK         0.4970 
     63 O          36.1514    0.9272   -8.7468 O.2       10 UNK        -0.4914 
     64 N          33.9492    1.1847   -8.2642 N.am      11 UNK        -0.4285 
     65 CA         34.1212    1.4856   -6.8306 C.3       11 UNK         0.1007 
     66 C          32.9508    2.2518   -6.1519 C.2       11 UNK         0.5703 
     67 N          31.8201    2.4862   -6.7991 N.am      11 UNK        -0.7361 
     68 O          33.0762    2.6527   -4.9970 O.2       11 UNK        -0.4986 
     69 C69        34.5736    0.2472   -5.9946 C.3       12 UNK        -0.0947 
     70 S70        33.6235   -1.2882   -6.2813 S.3       12 UNK        -0.2240 
     71 C71        32.0631   -0.9396   -5.4156 C.3       12 UNK         0.0194 
     72 H72        24.6387   -5.6590   -4.0040 H         1 UNK         0.0906 
     73 H73        26.2913   -6.1804   -3.6537 H         1 UNK         0.0906 
     74 H74        24.9439   -6.8500   -2.7376 H         1 UNK         0.0906 
     75 H75        27.3438   -4.3955   -2.7417 H         1 UNK         0.3140 
     76 H76        26.4996   -3.3175   -0.2271 H         1 UNK         0.1085 
     77 H77        28.7278   -2.3329   -2.0837 H         1 UNK         0.0836 
     78 H78        28.5550   -1.9299   -0.3947 H         1 UNK         0.0836 
     79 H79        31.3912   -2.9110   -0.8703 H         1 UNK         0.0731 
     80 H80        31.6728   -4.6104   -1.1574 H         1 UNK         0.0731 
     81 H81        31.9530   -1.6771   -2.7973 H         1 UNK         0.1312 
     82 H82        30.8266   -2.9882   -6.7186 H         1 UNK         0.1406 
     83 H83        29.9469   -5.4310   -3.2999 H         1 UNK         0.1631 
     84 H84        29.2515   -6.1865   -5.4251 H         1 UNK         0.0717 
     85 H85        30.4172   -5.7895   -6.6636 H         1 UNK         0.0717 
     86 H86        26.3644   -4.6921   -5.6961 H         1 UNK         0.0934 
     87 H87        27.6516   -3.9058   -4.8249 H         1 UNK         0.0934 
     88 H88        26.4039   -2.6476   -7.3049 H         1 UNK         0.0739 
     89 H89        25.3926   -1.8501   -4.6498 H         1 UNK         0.3093 
     90 H90        22.0895   -2.0241   -5.9780 H         1 UNK         0.0818 
     91 H91        21.4954   -3.0560   -3.8378 H         1 UNK         0.0819 
     92 H92        22.3674   -4.2424   -4.7954 H         1 UNK         0.0819 
     93 H93        23.1817   -3.4061   -3.4776 H         1 UNK         0.0819 
     94 H94        23.0169   -0.9707   -3.5024 H         1 UNK         0.3041 
     95 H95        23.8089    2.2859   -4.6611 H         1 UNK         0.0784 
     96 H96        21.3347    2.2675   -4.6277 H         1 UNK         0.0793 
     97 H97        21.3257    1.2760   -3.1788 H         1 UNK         0.0793 
     98 H98        21.9662    2.9174   -3.1234 H         1 UNK         0.0793 
     99 H99        24.9777    1.8297   -2.8873 H         1 UNK         0.3024 
    100 H100       25.8548    1.0487   -1.1254 H         1 UNK         0.1171 
    101 H101       23.7543    0.1701    0.9212 H         1 UNK         0.0786 
    102 H102       24.0802    1.8349    0.4608 H         1 UNK         0.0786 
    103 H103       25.3214    0.8991    1.2757 H         1 UNK         0.0786 
    104 H104       25.7818   -1.2721    0.2742 H         1 UNK         0.2977 
    105 H105       26.9670   -0.9706   -4.2117 H         1 UNK         0.3127 
    106 H106       29.4810    0.1330   -4.8133 H         1 UNK         0.0770 
    107 H107       27.2197    1.2571   -3.0904 H         1 UNK         0.0814 
    108 H108       28.8997    1.7671   -3.0226 H         1 UNK         0.0814 
    109 H109       28.4706    0.1336   -2.5519 H         1 UNK         0.0814 
    110 H110       26.5583    0.8419   -6.4114 H         1 UNK         0.2983 
    111 H111       27.2463    3.5676   -7.2507 H         1 UNK         0.0947 
    112 H112       25.1850    3.3295   -8.6320 H         1 UNK         0.0806 
    113 H113       24.8636    2.8988   -6.9618 H         1 UNK         0.0806 
    114 H114       25.0499    1.6364   -8.1782 H         1 UNK         0.0806 
    115 H115       28.2950    0.4100   -8.1923 H         1 UNK         0.3000 
    116 H116       28.4903    0.7970  -11.0351 H         1 UNK         0.0850 
    117 H117       29.9409   -1.2234  -10.9255 H         1 UNK         0.0810 
    118 H118       28.5034   -1.4620   -9.9438 H         1 UNK         0.0810 
    119 H119       30.0438   -1.0889   -9.1751 H         1 UNK         0.0810 
    120 H120       30.1130    1.6594  -12.2500 H         1 UNK         0.3040 
    121 H121       31.6412    3.7254  -11.2751 H         1 UNK         0.0766 
    122 H122       32.6289    3.7761  -13.5795 H         1 UNK         0.0812 
    123 H123       30.8944    3.5217  -13.6262 H         1 UNK         0.0812 
    124 H124       31.9941    2.1671  -13.8923 H         1 UNK         0.0812 
    125 H125       32.6143    0.4298  -11.1572 H         1 UNK         0.3205 
    126 H126       35.4680    0.7560  -11.1608 H         1 UNK         0.0754 
    127 H127       35.4377   -1.5622  -10.2288 H         1 UNK         0.0769 
    128 H128       34.3745   -1.4294  -11.6194 H         1 UNK         0.0769 
    129 H129       33.6998   -1.4613   -9.9883 H         1 UNK         0.0769 
    130 H130       32.9975    1.1676   -8.6126 H         1 UNK         0.2981 
    131 H131       34.9379    2.2083   -6.7785 H         1 UNK         0.0541 
    132 H132       31.0531    2.9157   -6.2980 H         1 UNK         0.3459 
    133 H133       31.6468    2.1594   -7.7483 H         1 UNK         0.3459 
    134 H134       34.5847    0.4647   -4.9251 H         1 UNK         0.0612 
    135 H135       35.6113    0.0170   -6.2387 H         1 UNK         0.0612 
    136 H136       32.2285   -0.2008   -4.6303 H         1 UNK         0.0624 
    137 H137       31.3617   -0.4935   -6.1226 H         1 UNK         0.0624 
@<TRIPOS>BOND
     1    1    2 1    
     2    1   72 1    
     3    1   73 1    
     4    1   74 1    
     5    2    3 2    
     6    2    4 am   BACKBONE|DICT|INTERRES
     7    4    5 1    
     8    4   75 1    
     9    5    6 1    
    10    5   35 1    
    11    5   76 1    
    12    6    7 1    
    13    6   77 1    
    14    6   78 1    
    15    7    8 1    
    16    8    9 1    
    17    8   79 1    
    18    8   80 1    
    19    9   10 ar   
    20    9   14 ar   
    21   10   11 ar   
    22   10   81 1    
    23   11   12 ar   
    24   11   71 1    
    25   12   13 ar   
    26   12   82 1    
    27   13   14 ar   
    28   13   15 1    
    29   14   83 1    
    30   15   16 1    
    31   15   84 1    
    32   15   85 1    
    33   16   17 1    
    34   17   18 1    
    35   17   86 1    
    36   17   87 1    
    37   18   19 1    
    38   18   37 1    
    39   18   88 1    
    40   19   20 am   BACKBONE|DICT|INTERRES
    41   19   89 1    
    42   20   21 2    
    43   20   22 1    
    44   22   23 1    
    45   22   24 1    
    46   22   90 1    
    47   23   91 1    
    48   23   92 1    
    49   23   93 1    
    50   24   25 am   BACKBONE|DICT|INTERRES
    51   24   94 1    
    52   25   26 2    
    53   25   27 1    
    54   27   28 1    
    55   27   29 1    
    56   27   95 1    
    57   28   96 1    
    58   28   97 1    
    59   28   98 1    
    60   29   30 am   BACKBONE|DICT|INTERRES
    61   29   99 1    
    62   30   31 2    
    63   30   32 1    
    64   32   33 1    
    65   32   34 1    
    66   32  100 1    
    67   33  101 1    
    68   33  102 1    
    69   33  103 1    
    70   34   35 am   BACKBONE|DICT|INTERRES
    71   34  104 1    
    72   35   36 2    
    73   37   38 2    
    74   37   39 am   BACKBONE|DICT|INTERRES
    75   39   40 1    
    76   39  105 1    
    77   40   41 1    
    78   40   42 1    
    79   40  106 1    
    80   41  107 1    
    81   41  108 1    
    82   41  109 1    
    83   42   43 2    
    84   42   44 am   BACKBONE|DICT|INTERRES
    85   44   45 1    
    86   44  110 1    
    87   45   46 1    
    88   45   47 1    
    89   45  111 1    
    90   46  112 1    
    91   46  113 1    
    92   46  114 1    
    93   47   48 2    
    94   47   49 am   BACKBONE|DICT|INTERRES
    95   49   50 1    
    96   49  115 1    
    97   50   51 1    
    98   50   52 1    
    99   50  116 1    
   100   51  117 1    
   101   51  118 1    
   102   51  119 1    
   103   52   53 2    
   104   52   54 am   BACKBONE|DICT|INTERRES
   105   54   55 1    
   106   54  120 1    
   107   55   56 1    
   108   55   57 1    
   109   55  121 1    
   110   56  122 1    
   111   56  123 1    
   112   56  124 1    
   113   57   58 2    
   114   57   59 am   BACKBONE|DICT|INTERRES
   115   59   60 1    
   116   59  125 1    
   117   60   61 1    
   118   60   62 1    
   119   60  126 1    
   120   61  127 1    
   121   61  128 1    
   122   61  129 1    
   123   62   63 2    
   124   62   64 am   BACKBONE|DICT|INTERRES
   125   64   65 1    
   126   64  130 1    
   127   65   66 1    
   128   65   69 1    
   129   65  131 1    
   130   66   67 am   BACKBONE|DICT|INTERRES
   131   66   68 2    
   132   67  132 1    
   133   67  133 1    
   134   69   70 1    
   135   69  134 1    
   136   69  135 1    
   137   70   71 1    
   138   71  136 1    
   139   71  137 1    
@<TRIPOS>SUBSTRUCTURE
     1 UNK         1 GROUP             0       ****    0 ROOT    
