@<TRIPOS>MOLECULE
3R137
137   139    1
SMALL
USER_CHARGES


@<TRIPOS>ATOM
      1 CA         30.5817   -0.7300    2.0736 C.3       0 UNK        -0.2020 
      2 C          29.5470   -1.5584    1.3259 C.2       0 UNK         0.4855 
      3 O          28.6221   -2.0805    1.9500 O.2       0 UNK        -0.5197 
      4 N          29.7056   -1.6789   -0.0001 N.am      1 UNK        -0.4892 
      5 CA         28.8243   -2.4049   -0.9311 C.3       1 UNK         0.0835 
      6 C6         28.7364   -3.9354   -0.6471 C.3       12 UNK        -0.0855 
      7 S7         30.3762   -4.7242   -0.4761 S.3       12 UNK        -0.2931 
      8 C8         30.4828   -5.7435   -1.9828 C.3       12 UNK         0.0378 
      9 C9         30.5458   -4.9254   -3.2683 C.ar      12 UNK        -0.0802 
     10 C10        31.4999   -3.9126   -3.4273 C.ar      12 UNK        -0.0944 
     11 C11        31.5986   -3.2111   -4.6328 C.ar      12 UNK        -0.0787 
     12 C12        30.7259   -3.5244   -5.6772 C.ar      12 UNK        -0.0862 
     13 C13        29.7751   -4.5382   -5.5415 C.ar      12 UNK        -0.0733 
     14 C14        29.6902   -5.2350   -4.3313 C.ar      12 UNK        -0.0832 
     15 C15        28.9045   -4.9117   -6.7382 C.3       12 UNK         0.0240 
     16 S16        27.1452   -5.1702   -6.3389 S.3       12 UNK        -0.2522 
     17 C17        26.6582   -3.5447   -5.6822 C.3       12 UNK        -0.0967 
     18 CA         26.3559   -2.5029   -6.7966 C.3       5 UNK         0.0660 
     19 N          25.0809   -1.8209   -6.5672 N.am      5 UNK        -0.4015 
     20 C          24.4365   -1.0572   -7.4591 C.2       4 UNK         0.4946 
     21 O          24.8194   -0.8750   -8.6148 O.2       4 UNK        -0.5353 
     22 CA         23.1593   -0.3557   -6.9638 C.3       4 UNK         0.0277 
     23 CB         21.9367   -1.2691   -7.1459 C.3       4 UNK        -0.1981 
     24 N          23.2481    0.0743   -5.5636 N.am      4 UNK        -0.4209 
     25 C          24.0639    1.0462   -5.1318 C.2       3 UNK         0.4942 
     26 O          24.8055    1.6932   -5.8692 O.2       3 UNK        -0.5208 
     27 CA         24.0946    1.3160   -3.6184 C.3       3 UNK         0.0250 
     28 CB         22.8971    2.1848   -3.2005 C.3       3 UNK        -0.1990 
     29 N          24.1554    0.1171   -2.7714 N.am      3 UNK        -0.4232 
     30 C          25.0606   -0.8662   -2.8766 C.2       2 UNK         0.4993 
     31 O          25.8565   -0.9756   -3.8109 O.2       2 UNK        -0.5286 
     32 CA         25.0675   -1.9268   -1.7637 C.3       2 UNK         0.0209 
     33 CB         24.1362   -3.0942   -2.1283 C.3       2 UNK        -0.1931 
     34 N          26.4183   -2.4462   -1.5189 N.am      2 UNK        -0.4546 
     35 C          27.4407   -1.7148   -1.0478 C.2       1 UNK         0.5154 
     36 O          27.3207   -0.5274   -0.7289 O.2       1 UNK        -0.5181 
     37 C          27.4935   -1.4742   -6.9301 C.2       5 UNK         0.5014 
     38 O          28.2686   -1.5300   -7.8863 O.2       5 UNK        -0.5248 
     39 N          27.5365   -0.5293   -5.9808 N.am      6 UNK        -0.4434 
     40 CA         28.4802    0.5829   -5.9409 C.3       6 UNK         0.0363 
     41 CB         28.3178    1.3609   -4.6269 C.3       6 UNK        -0.1936 
     42 C          28.3597    1.5090   -7.1572 C.2       6 UNK         0.5081 
     43 O          29.3846    1.8706   -7.7296 O.2       6 UNK        -0.5248 
     44 N          27.1254    1.8340   -7.5669 N.am      7 UNK        -0.4718 
     45 CA         26.8347    2.6161   -8.7717 C.3       7 UNK         0.0273 
     46 CB         25.3343    2.9432   -8.8291 C.3       7 UNK        -0.1935 
     47 C          27.2851    1.9247  -10.0699 C.2       7 UNK         0.5018 
     48 O          27.7802    2.6056  -10.9686 O.2       7 UNK        -0.5186 
     49 N          27.1196    0.5960  -10.1434 N.am      8 UNK        -0.4240 
     50 CA         27.5577   -0.2247  -11.2735 C.3       8 UNK         0.0235 
     51 CB         26.8947   -1.6102  -11.2002 C.3       8 UNK        -0.2000 
     52 C          29.0880   -0.3515  -11.3526 C.2       8 UNK         0.4941 
     53 O          29.6519   -0.1803  -12.4343 O.2       8 UNK        -0.5273 
     54 N          29.7303   -0.6546  -10.2163 N.am      9 UNK        -0.4262 
     55 CA         31.1797   -0.8552  -10.1206 C.3       9 UNK         0.0264 
     56 CB         31.4829   -1.6803   -8.8637 C.3       9 UNK        -0.1955 
     57 C          31.9954    0.4484  -10.0977 C.2       9 UNK         0.5031 
     58 O          33.1785    0.4124  -10.4383 O.2       9 UNK        -0.5390 
     59 N          31.3700    1.5520   -9.6646 N.am      10 UNK        -0.4204 
     60 CA         31.9560    2.8688   -9.3870 C.3       10 UNK         0.0237 
     61 CB         32.5784    3.4968  -10.6532 C.3       10 UNK        -0.1985 
     62 C          32.9105    2.8623   -8.1737 C.2       10 UNK         0.4970 
     63 O          33.8131    3.6996   -8.1107 O.2       10 UNK        -0.4914 
     64 N          32.6966    1.9339   -7.2298 N.am      11 UNK        -0.4285 
     65 CA         33.4293    1.8513   -5.9582 C.3       11 UNK         0.1007 
     66 C          32.8514    2.7990   -4.8692 C.2       11 UNK         0.5703 
     67 N          33.5885    3.0197   -3.7886 N.am      11 UNK        -0.7361 
     68 O          31.7479    3.3304   -4.9832 O.2       11 UNK        -0.4986 
     69 C69        33.5943    0.3843   -5.4726 C.3       12 UNK        -0.0947 
     70 S70        32.0443   -0.4940   -5.0777 S.3       12 UNK        -0.2240 
     71 C71        32.6967   -2.1762   -4.8439 C.3       12 UNK         0.0194 
     72 H72        31.0735   -1.3398    2.8311 H         1 UNK         0.0906 
     73 H73        31.3484   -0.3344    1.4076 H         1 UNK         0.0906 
     74 H74        30.0997    0.1104    2.5724 H         1 UNK         0.0906 
     75 H75        30.4776   -1.1990   -0.4407 H         1 UNK         0.3140 
     76 H76        29.2803   -2.2879   -1.9160 H         1 UNK         0.1085 
     77 H77        28.1768   -4.1238    0.2708 H         1 UNK         0.0836 
     78 H78        28.1923   -4.4473   -1.4422 H         1 UNK         0.0836 
     79 H79        31.3812   -6.3590   -1.9218 H         1 UNK         0.0731 
     80 H80        29.6397   -6.4361   -1.9985 H         1 UNK         0.0731 
     81 H81        32.1831   -3.6915   -2.6185 H         1 UNK         0.1312 
     82 H82        30.8092   -2.9935   -6.6115 H         1 UNK         0.1406 
     83 H83        28.9716   -6.0370   -4.2287 H         1 UNK         0.1631 
     84 H84        28.9736   -4.1536   -7.5197 H         1 UNK         0.0717 
     85 H85        29.2971   -5.8313   -7.1738 H         1 UNK         0.0717 
     86 H86        25.7660   -3.7286   -5.0829 H         1 UNK         0.0934 
     87 H87        27.4019   -3.1959   -4.9619 H         1 UNK         0.0934 
     88 H88        26.2674   -3.0139   -7.7581 H         1 UNK         0.0739 
     89 H89        24.7399   -1.8308   -5.6167 H         1 UNK         0.3093 
     90 H90        23.0141    0.5339   -7.5807 H         1 UNK         0.0818 
     91 H91        21.0135   -0.7543   -6.8791 H         1 UNK         0.0819 
     92 H92        21.8394   -1.5857   -8.1855 H         1 UNK         0.0819 
     93 H93        22.0079   -2.1708   -6.5364 H         1 UNK         0.0819 
     94 H94        22.6677   -0.4057   -4.8909 H         1 UNK         0.3041 
     95 H95        25.0049    1.8849   -3.4183 H         1 UNK         0.0784 
     96 H96        22.8392    3.0889   -3.8086 H         1 UNK         0.0793 
     97 H97        21.9510    1.6542   -3.3145 H         1 UNK         0.0793 
     98 H98        22.9806    2.5031   -2.1611 H         1 UNK         0.0793 
     99 H99        23.5232    0.1025   -1.9837 H         1 UNK         0.3024 
    100 H100       24.7138   -1.4648   -0.8390 H         1 UNK         0.1171 
    101 H101       24.0939   -3.8322   -1.3269 H         1 UNK         0.0786 
    102 H102       23.1163   -2.7457   -2.2969 H         1 UNK         0.0786 
    103 H103       24.4601   -3.6043   -3.0357 H         1 UNK         0.0786 
    104 H104       26.5866   -3.4028   -1.7905 H         1 UNK         0.2977 
    105 H105       26.8701   -0.5911   -5.2102 H         1 UNK         0.3127 
    106 H106       29.4792    0.1511   -5.9635 H         1 UNK         0.0770 
    107 H107       27.3255    1.8045   -4.5408 H         1 UNK         0.0814 
    108 H108       29.0475    2.1694   -4.5627 H         1 UNK         0.0814 
    109 H109       28.4716    0.7144   -3.7625 H         1 UNK         0.0814 
    110 H110       26.3279    1.5530   -7.0007 H         1 UNK         0.2983 
    111 H111       27.3860    3.5558   -8.6945 H         1 UNK         0.0947 
    112 H112       25.0950    3.5320   -9.7156 H         1 UNK         0.0806 
    113 H113       25.0222    3.5239   -7.9610 H         1 UNK         0.0806 
    114 H114       24.7263    2.0383   -8.8623 H         1 UNK         0.0806 
    115 H115       26.6672    0.1155   -9.3740 H         1 UNK         0.3000 
    116 H116       27.2187    0.2597  -12.1919 H         1 UNK         0.0850 
    117 H117       27.1989   -2.2340  -12.0417 H         1 UNK         0.0810 
    118 H118       25.8079   -1.5297  -11.2321 H         1 UNK         0.0810 
    119 H119       27.1608   -2.1416  -10.2860 H         1 UNK         0.0810 
    120 H120       29.1834   -0.8298   -9.3743 H         1 UNK         0.3040 
    121 H121       31.5077   -1.4303  -10.9893 H         1 UNK         0.0766 
    122 H122       30.9902   -2.6516   -8.9069 H         1 UNK         0.0812 
    123 H123       31.1447   -1.1652   -7.9639 H         1 UNK         0.0812 
    124 H124       32.5533   -1.8617   -8.7559 H         1 UNK         0.0812 
    125 H125       30.4172    1.4511   -9.3240 H         1 UNK         0.3205 
    126 H126       31.1186    3.5038   -9.0944 H         1 UNK         0.0754 
    127 H127       32.8447    4.5402  -10.4804 H         1 UNK         0.0769 
    128 H128       31.8795    3.4765  -11.4896 H         1 UNK         0.0769 
    129 H129       33.4871    2.9789  -10.9609 H         1 UNK         0.0769 
    130 H130       31.8836    1.3413   -7.3111 H         1 UNK         0.2981 
    131 H131       34.4408    2.2156   -6.1487 H         1 UNK         0.0541 
    132 H132       34.4943    2.5921   -3.6768 H         1 UNK         0.3459 
    133 H133       33.2299    3.6281   -3.0696 H         1 UNK         0.3459 
    134 H134       34.2388    0.3471   -4.5929 H         1 UNK         0.0612 
    135 H135       34.1180   -0.1845   -6.2426 H         1 UNK         0.0612 
    136 H136       33.3896   -2.1710   -4.0012 H         1 UNK         0.0624 
    137 H137       33.2792   -2.4593   -5.7219 H         1 UNK         0.0624 
@<TRIPOS>BOND
     1    1    2 1    
     2    1   72 1    
     3    1   73 1    
     4    1   74 1    
     5    2    3 2    
     6    2    4 am   BACKBONE|DICT|INTERRES
     7    4    5 1    
     8    4   75 1    
     9    5    6 1    
    10    5   35 1    
    11    5   76 1    
    12    6    7 1    
    13    6   77 1    
    14    6   78 1    
    15    7    8 1    
    16    8    9 1    
    17    8   79 1    
    18    8   80 1    
    19    9   10 ar   
    20    9   14 ar   
    21   10   11 ar   
    22   10   81 1    
    23   11   12 ar   
    24   11   71 1    
    25   12   13 ar   
    26   12   82 1    
    27   13   14 ar   
    28   13   15 1    
    29   14   83 1    
    30   15   16 1    
    31   15   84 1    
    32   15   85 1    
    33   16   17 1    
    34   17   18 1    
    35   17   86 1    
    36   17   87 1    
    37   18   19 1    
    38   18   37 1    
    39   18   88 1    
    40   19   20 am   BACKBONE|DICT|INTERRES
    41   19   89 1    
    42   20   21 2    
    43   20   22 1    
    44   22   23 1    
    45   22   24 1    
    46   22   90 1    
    47   23   91 1    
    48   23   92 1    
    49   23   93 1    
    50   24   25 am   BACKBONE|DICT|INTERRES
    51   24   94 1    
    52   25   26 2    
    53   25   27 1    
    54   27   28 1    
    55   27   29 1    
    56   27   95 1    
    57   28   96 1    
    58   28   97 1    
    59   28   98 1    
    60   29   30 am   BACKBONE|DICT|INTERRES
    61   29   99 1    
    62   30   31 2    
    63   30   32 1    
    64   32   33 1    
    65   32   34 1    
    66   32  100 1    
    67   33  101 1    
    68   33  102 1    
    69   33  103 1    
    70   34   35 am   BACKBONE|DICT|INTERRES
    71   34  104 1    
    72   35   36 2    
    73   37   38 2    
    74   37   39 am   BACKBONE|DICT|INTERRES
    75   39   40 1    
    76   39  105 1    
    77   40   41 1    
    78   40   42 1    
    79   40  106 1    
    80   41  107 1    
    81   41  108 1    
    82   41  109 1    
    83   42   43 2    
    84   42   44 am   BACKBONE|DICT|INTERRES
    85   44   45 1    
    86   44  110 1    
    87   45   46 1    
    88   45   47 1    
    89   45  111 1    
    90   46  112 1    
    91   46  113 1    
    92   46  114 1    
    93   47   48 2    
    94   47   49 am   BACKBONE|DICT|INTERRES
    95   49   50 1    
    96   49  115 1    
    97   50   51 1    
    98   50   52 1    
    99   50  116 1    
   100   51  117 1    
   101   51  118 1    
   102   51  119 1    
   103   52   53 2    
   104   52   54 am   BACKBONE|DICT|INTERRES
   105   54   55 1    
   106   54  120 1    
   107   55   56 1    
   108   55   57 1    
   109   55  121 1    
   110   56  122 1    
   111   56  123 1    
   112   56  124 1    
   113   57   58 2    
   114   57   59 am   BACKBONE|DICT|INTERRES
   115   59   60 1    
   116   59  125 1    
   117   60   61 1    
   118   60   62 1    
   119   60  126 1    
   120   61  127 1    
   121   61  128 1    
   122   61  129 1    
   123   62   63 2    
   124   62   64 am   BACKBONE|DICT|INTERRES
   125   64   65 1    
   126   64  130 1    
   127   65   66 1    
   128   65   69 1    
   129   65  131 1    
   130   66   67 am   BACKBONE|DICT|INTERRES
   131   66   68 2    
   132   67  132 1    
   133   67  133 1    
   134   69   70 1    
   135   69  134 1    
   136   69  135 1    
   137   70   71 1    
   138   71  136 1    
   139   71  137 1    
@<TRIPOS>SUBSTRUCTURE
     1 UNK         1 GROUP             0       ****    0 ROOT    
