@<TRIPOS>MOLECULE
3R137
137   139    1
SMALL
USER_CHARGES


@<TRIPOS>ATOM
      1 CA         28.7359    0.2653    3.1047 C.3       0 UNK        -0.2020 
      2 C          28.5575    0.4716    1.6086 C.2       0 UNK         0.4855 
      3 O          28.5025    1.6131    1.1513 O.2       0 UNK        -0.5197 
      4 N          28.4702   -0.6245    0.8438 N.am      1 UNK        -0.4892 
      5 CA         28.2956   -0.6233   -0.6151 C.3       1 UNK         0.0835 
      6 C6         28.5383   -2.0299   -1.2173 C.3       12 UNK        -0.0855 
      7 S7         30.2871   -2.5234   -1.0834 S.3       12 UNK        -0.2931 
      8 C8         30.2763   -4.1470   -1.9160 C.3       12 UNK         0.0378 
      9 C9         30.2124   -4.0600   -3.4396 C.ar      12 UNK        -0.0802 
     10 C10        31.1443   -3.2949   -4.1503 C.ar      12 UNK        -0.0944 
     11 C11        31.1458   -3.2762   -5.5535 C.ar      12 UNK        -0.0787 
     12 C12        30.1866   -4.0335   -6.2388 C.ar      12 UNK        -0.0862 
     13 C13        29.2515   -4.8079   -5.5433 C.ar      12 UNK        -0.0733 
     14 C14        29.2646   -4.8082   -4.1448 C.ar      12 UNK        -0.0832 
     15 C15        28.2718   -5.7047   -6.2910 C.3       12 UNK         0.0240 
     16 S16        26.6549   -4.9093   -6.5634 S.3       12 UNK        -0.2522 
     17 C17        26.7279   -4.4375   -8.3324 C.3       12 UNK        -0.0967 
     18 CA         26.3920   -2.9515   -8.6152 C.3       5 UNK         0.0660 
     19 N          25.1001   -2.5469   -8.0539 N.am      5 UNK        -0.4015 
     20 C          24.4983   -1.3709   -8.2839 C.2       4 UNK         0.4946 
     21 O          24.9327   -0.5162   -9.0557 O.2       4 UNK        -0.5353 
     22 CA         23.2174   -1.0794   -7.4847 C.3       4 UNK         0.0277 
     23 CB         21.9833   -1.6084   -8.2326 C.3       4 UNK        -0.1981 
     24 N          23.2408   -1.6239   -6.1222 N.am      4 UNK        -0.4209 
     25 C          24.1029   -1.2488   -5.1673 C.2       3 UNK         0.4942 
     26 O          25.0022   -0.4212   -5.3362 O.2       3 UNK        -0.5208 
     27 CA         23.9643   -1.9527   -3.8147 C.3       3 UNK         0.0250 
     28 CB         24.8394   -3.2179   -3.7667 C.3       3 UNK        -0.1990 
     29 N          24.3745   -1.0391   -2.7535 N.am      3 UNK        -0.4232 
     30 C          23.8689   -1.0117   -1.5154 C.2       2 UNK         0.4993 
     31 O          22.9844   -1.7757   -1.1229 O.2       2 UNK        -0.5286 
     32 CA         24.4867    0.0136   -0.5440 C.3       2 UNK         0.0209 
     33 CB         23.7052    0.1283    0.7788 C.3       2 UNK        -0.1931 
     34 N          25.8775   -0.3317   -0.2419 N.am      2 UNK        -0.4546 
     35 C          26.9174   -0.0856   -1.0500 C.2       1 UNK         0.5154 
     36 O          26.8130    0.5300   -2.1113 O.2       1 UNK        -0.5181 
     37 C          27.5321   -2.0178   -8.1732 C.2       5 UNK         0.5014 
     38 O          28.3454   -1.6190   -9.0054 O.2       5 UNK        -0.5248 
     39 N          27.5465   -1.6596   -6.8834 N.am      6 UNK        -0.4434 
     40 CA         28.5258   -0.7554   -6.2926 C.3       6 UNK         0.0363 
     41 CB         28.4655   -0.8563   -4.7678 C.3       6 UNK        -0.1936 
     42 C          28.3389    0.6879   -6.7630 C.2       6 UNK         0.5081 
     43 O          29.3314    1.3442   -7.0736 O.2       6 UNK        -0.5248 
     44 N          27.0793    1.1355   -6.8594 N.am      7 UNK        -0.4718 
     45 CA         26.7075    2.4397   -7.4131 C.3       7 UNK         0.0273 
     46 CB         25.1977    2.6628   -7.2343 C.3       7 UNK        -0.1935 
     47 C          27.1167    2.6017   -8.8888 C.2       7 UNK         0.5018 
     48 O          27.5667    3.6819   -9.2728 O.2       7 UNK        -0.5186 
     49 N          26.9738    1.5266   -9.6771 N.am      8 UNK        -0.4240 
     50 CA         27.4089    1.4595  -11.0714 C.3       8 UNK         0.0235 
     51 CB         26.7404    0.2610  -11.7657 C.3       8 UNK        -0.2000 
     52 C          28.9389    1.3918  -11.2138 C.2       8 UNK         0.4941 
     53 O          29.5019    2.1596  -11.9954 O.2       8 UNK        -0.5273 
     54 N          29.5805    0.4640  -10.4880 N.am      9 UNK        -0.4262 
     55 CA         31.0162    0.1892  -10.5932 C.3       9 UNK         0.0264 
     56 CB         31.3279   -1.1869   -9.9824 C.3       9 UNK        -0.1955 
     57 C          31.9082    1.2658   -9.9572 C.2       9 UNK         0.5031 
     58 O          32.9730    1.5494  -10.5084 O.2       9 UNK        -0.5390 
     59 N          31.4817    1.8181   -8.8096 N.am      10 UNK        -0.4204 
     60 CA         32.2031    2.7861   -7.9718 C.3       10 UNK         0.0237 
     61 CB         32.2729    4.1611   -8.6699 C.3       10 UNK        -0.1985 
     62 C          33.5816    2.2661   -7.5110 C.2       10 UNK         0.4970 
     63 O          34.5699    3.0003   -7.5750 O.2       10 UNK        -0.4914 
     64 N          33.6253    0.9962   -7.0802 N.am      11 UNK        -0.4285 
     65 CA         34.8588    0.2864   -6.7009 C.3       11 UNK         0.1007 
     66 C          35.5199    0.7409   -5.3639 C.2       11 UNK         0.5703 
     67 N          34.8642    1.5467   -4.5362 N.am      11 UNK        -0.7361 
     68 O          36.6559    0.3658   -5.0824 O.2       11 UNK        -0.4986 
     69 C69        34.6945   -1.2561   -6.8086 C.3       12 UNK        -0.0947 
     70 S70        33.6984   -2.0295   -5.4842 S.3       12 UNK        -0.2240 
     71 C71        32.1552   -2.4562   -6.3663 C.3       12 UNK         0.0194 
     72 H72        28.7946   -0.7916    3.3681 H         1 UNK         0.0906 
     73 H73        29.6524    0.7496    3.4434 H         1 UNK         0.0906 
     74 H74        27.8973    0.7047    3.6457 H         1 UNK         0.0906 
     75 H75        28.5575   -1.5359    1.2712 H         1 UNK         0.3140 
     76 H76        29.0349    0.0614   -1.0373 H         1 UNK         0.1085 
     77 H77        28.2596   -2.0604   -2.2690 H         1 UNK         0.0836 
     78 H78        27.9155   -2.7772   -0.7215 H         1 UNK         0.0836 
     79 H79        29.4515   -4.7431   -1.5214 H         1 UNK         0.0731 
     80 H80        31.1904   -4.6774   -1.6442 H         1 UNK         0.0731 
     81 H81        31.8728   -2.7221   -3.5946 H         1 UNK         0.1312 
     82 H82        30.1772   -4.0332   -7.3206 H         1 UNK         0.1406 
     83 H83        28.5522   -5.4195   -3.6068 H         1 UNK         0.1631 
     84 H84        28.1062   -6.6150   -5.7126 H         1 UNK         0.0717 
     85 H85        28.7041   -6.0387   -7.2351 H         1 UNK         0.0717 
     86 H86        27.7035   -4.6862   -8.7543 H         1 UNK         0.0934 
     87 H87        26.0182   -5.0716   -8.8663 H         1 UNK         0.0934 
     88 H88        26.3082   -2.8402   -9.6986 H         1 UNK         0.0739 
     89 H89        24.6762   -3.1915   -7.4032 H         1 UNK         0.3093 
     90 H90        23.1252    0.0055   -7.4028 H         1 UNK         0.0818 
     91 H91        21.0603   -1.3244   -7.7268 H         1 UNK         0.0819 
     92 H92        21.9352   -1.1983   -9.2426 H         1 UNK         0.0819 
     93 H93        21.9973   -2.6953   -8.3229 H         1 UNK         0.0819 
     94 H94        22.5381   -2.3150   -5.8994 H         1 UNK         0.3041 
     95 H95        22.9167   -2.2286   -3.6743 H         1 UNK         0.0784 
     96 H96        25.8940   -2.9871   -3.9258 H         1 UNK         0.0793 
     97 H97        24.7515   -3.7243   -2.8053 H         1 UNK         0.0793 
     98 H98        24.5390   -3.9321   -4.5340 H         1 UNK         0.0793 
     99 H99        25.0992   -0.3739   -3.0093 H         1 UNK         0.3024 
    100 H100       24.4555    0.9898   -1.0345 H         1 UNK         0.1171 
    101 H101       22.6642    0.3971    0.5946 H         1 UNK         0.0786 
    102 H102       24.1282    0.8997    1.4227 H         1 UNK         0.0786 
    103 H103       23.7067   -0.8103    1.3345 H         1 UNK         0.0786 
    104 H104       26.0451   -0.8537    0.6060 H         1 UNK         0.2977 
    105 H105       26.8214   -2.0092   -6.2747 H         1 UNK         0.3127 
    106 H106       29.5126   -1.0799   -6.6174 H         1 UNK         0.0770 
    107 H107       27.4955   -0.5460   -4.3820 H         1 UNK         0.0814 
    108 H108       29.2261   -0.2314   -4.2981 H         1 UNK         0.0814 
    109 H109       28.6413   -1.8822   -4.4520 H         1 UNK         0.0814 
    110 H110       26.3261    0.5379   -6.5311 H         1 UNK         0.2983 
    111 H111       27.2376    3.2029   -6.8390 H         1 UNK         0.0947 
    112 H112       24.9076    3.6561   -7.5793 H         1 UNK         0.0806 
    113 H113       24.9053    2.5832   -6.1870 H         1 UNK         0.0806 
    114 H114       24.6134    1.9379   -7.8011 H         1 UNK         0.0806 
    115 H115       26.5207    0.7010   -9.2964 H         1 UNK         0.3000 
    116 H116       27.0697    2.3680  -11.5743 H         1 UNK         0.0850 
    117 H117       27.0448    0.1943  -12.8111 H         1 UNK         0.0810 
    118 H118       25.6541    0.3511  -11.7487 H         1 UNK         0.0810 
    119 H119       27.0017   -0.6836  -11.2872 H         1 UNK         0.0810 
    120 H120       29.0412   -0.1645   -9.8939 H         1 UNK         0.3040 
    121 H121       31.2699    0.1440  -11.6547 H         1 UNK         0.0766 
    122 H122       32.3932   -1.4140  -10.0429 H         1 UNK         0.0812 
    123 H123       30.7962   -1.9812  -10.5066 H         1 UNK         0.0812 
    124 H124       31.0404   -1.2329   -8.9327 H         1 UNK         0.0812 
    125 H125       30.5892    1.5156   -8.4204 H         1 UNK         0.3205 
    126 H126       31.6084    2.9099   -7.0657 H         1 UNK         0.0754 
    127 H127       32.7026    4.9149   -8.0089 H         1 UNK         0.0769 
    128 H128       31.2798    4.5090   -8.9551 H         1 UNK         0.0769 
    129 H129       32.8874    4.1282   -9.5702 H         1 UNK         0.0769 
    130 H130       32.7693    0.4667   -7.0280 H         1 UNK         0.2981 
    131 H131       35.5928    0.5524   -7.4648 H         1 UNK         0.0541 
    132 H132       33.9338    1.8600   -4.7593 H         1 UNK         0.3459 
    133 H133       35.3051    1.8384   -3.6781 H         1 UNK         0.3459 
    134 H134       35.6787   -1.7279   -6.7860 H         1 UNK         0.0612 
    135 H135       34.2759   -1.5177   -7.7820 H         1 UNK         0.0612 
    136 H136       31.6846   -1.5256   -6.6866 H         1 UNK         0.0624 
    137 H137       32.4186   -3.0080   -7.2737 H         1 UNK         0.0624 
@<TRIPOS>BOND
     1    1    2 1    
     2    1   72 1    
     3    1   73 1    
     4    1   74 1    
     5    2    3 2    
     6    2    4 am   BACKBONE|DICT|INTERRES
     7    4    5 1    
     8    4   75 1    
     9    5    6 1    
    10    5   35 1    
    11    5   76 1    
    12    6    7 1    
    13    6   77 1    
    14    6   78 1    
    15    7    8 1    
    16    8    9 1    
    17    8   79 1    
    18    8   80 1    
    19    9   10 ar   
    20    9   14 ar   
    21   10   11 ar   
    22   10   81 1    
    23   11   12 ar   
    24   11   71 1    
    25   12   13 ar   
    26   12   82 1    
    27   13   14 ar   
    28   13   15 1    
    29   14   83 1    
    30   15   16 1    
    31   15   84 1    
    32   15   85 1    
    33   16   17 1    
    34   17   18 1    
    35   17   86 1    
    36   17   87 1    
    37   18   19 1    
    38   18   37 1    
    39   18   88 1    
    40   19   20 am   BACKBONE|DICT|INTERRES
    41   19   89 1    
    42   20   21 2    
    43   20   22 1    
    44   22   23 1    
    45   22   24 1    
    46   22   90 1    
    47   23   91 1    
    48   23   92 1    
    49   23   93 1    
    50   24   25 am   BACKBONE|DICT|INTERRES
    51   24   94 1    
    52   25   26 2    
    53   25   27 1    
    54   27   28 1    
    55   27   29 1    
    56   27   95 1    
    57   28   96 1    
    58   28   97 1    
    59   28   98 1    
    60   29   30 am   BACKBONE|DICT|INTERRES
    61   29   99 1    
    62   30   31 2    
    63   30   32 1    
    64   32   33 1    
    65   32   34 1    
    66   32  100 1    
    67   33  101 1    
    68   33  102 1    
    69   33  103 1    
    70   34   35 am   BACKBONE|DICT|INTERRES
    71   34  104 1    
    72   35   36 2    
    73   37   38 2    
    74   37   39 am   BACKBONE|DICT|INTERRES
    75   39   40 1    
    76   39  105 1    
    77   40   41 1    
    78   40   42 1    
    79   40  106 1    
    80   41  107 1    
    81   41  108 1    
    82   41  109 1    
    83   42   43 2    
    84   42   44 am   BACKBONE|DICT|INTERRES
    85   44   45 1    
    86   44  110 1    
    87   45   46 1    
    88   45   47 1    
    89   45  111 1    
    90   46  112 1    
    91   46  113 1    
    92   46  114 1    
    93   47   48 2    
    94   47   49 am   BACKBONE|DICT|INTERRES
    95   49   50 1    
    96   49  115 1    
    97   50   51 1    
    98   50   52 1    
    99   50  116 1    
   100   51  117 1    
   101   51  118 1    
   102   51  119 1    
   103   52   53 2    
   104   52   54 am   BACKBONE|DICT|INTERRES
   105   54   55 1    
   106   54  120 1    
   107   55   56 1    
   108   55   57 1    
   109   55  121 1    
   110   56  122 1    
   111   56  123 1    
   112   56  124 1    
   113   57   58 2    
   114   57   59 am   BACKBONE|DICT|INTERRES
   115   59   60 1    
   116   59  125 1    
   117   60   61 1    
   118   60   62 1    
   119   60  126 1    
   120   61  127 1    
   121   61  128 1    
   122   61  129 1    
   123   62   63 2    
   124   62   64 am   BACKBONE|DICT|INTERRES
   125   64   65 1    
   126   64  130 1    
   127   65   66 1    
   128   65   69 1    
   129   65  131 1    
   130   66   67 am   BACKBONE|DICT|INTERRES
   131   66   68 2    
   132   67  132 1    
   133   67  133 1    
   134   69   70 1    
   135   69  134 1    
   136   69  135 1    
   137   70   71 1    
   138   71  136 1    
   139   71  137 1    
@<TRIPOS>SUBSTRUCTURE
     1 UNK         1 GROUP             0       ****    0 ROOT    
