@<TRIPOS>MOLECULE
3R137
137   139    1
SMALL
USER_CHARGES


@<TRIPOS>ATOM
      1 CA         30.2362   -1.2934    2.7890 C.3       0 UNK        -0.2020 
      2 C          29.9321   -0.5891    1.4755 C.2       0 UNK         0.4855 
      3 O          29.9452    0.6407    1.4228 O.2       0 UNK        -0.5197 
      4 N          29.6596   -1.3592    0.4142 N.am      1 UNK        -0.4892 
      5 CA         29.3120   -0.8594   -0.9226 C.3       1 UNK         0.0835 
      6 C6         29.4488   -1.9695   -1.9953 C.3       12 UNK        -0.0855 
      7 S7         28.4305   -3.4559   -1.6622 S.3       12 UNK        -0.2931 
      8 C8         29.5328   -4.8126   -2.1724 C.3       12 UNK         0.0378 
      9 C9         29.8339   -4.7614   -3.6631 C.ar      12 UNK        -0.0802 
     10 C10        31.0250   -4.1874   -4.1140 C.ar      12 UNK        -0.0944 
     11 C11        31.3037   -4.0905   -5.4827 C.ar      12 UNK        -0.0787 
     12 C12        30.3855   -4.6181   -6.3967 C.ar      12 UNK        -0.0862 
     13 C13        29.1986   -5.2175   -5.9593 C.ar      12 UNK        -0.0733 
     14 C14        28.9260   -5.2825   -4.5895 C.ar      12 UNK        -0.0832 
     15 C15        28.2093   -5.7867   -6.9708 C.3       12 UNK         0.0240 
     16 S16        26.7167   -4.7538   -7.1505 S.3       12 UNK        -0.2522 
     17 C17        27.4653   -3.1188   -7.4438 C.3       12 UNK        -0.0967 
     18 CA         26.4960   -2.0532   -8.0129 C.3       5 UNK         0.0660 
     19 N          25.2337   -1.9965   -7.2705 N.am      5 UNK        -0.4015 
     20 C          24.2480   -1.0975   -7.4123 C.2       4 UNK         0.4946 
     21 O          24.2272   -0.2318   -8.2883 O.2       4 UNK        -0.5353 
     22 CA         23.1117   -1.1352   -6.3715 C.3       4 UNK         0.0277 
     23 CB         21.8408   -1.7403   -6.9898 C.3       4 UNK        -0.1981 
     24 N          23.4319   -1.8530   -5.1286 N.am      4 UNK        -0.4209 
     25 C          24.4391   -1.5660   -4.2904 C.2       3 UNK         0.4942 
     26 O          25.2697   -0.6750   -4.4887 O.2       3 UNK        -0.5208 
     27 CA         24.5841   -2.5024   -3.0802 C.3       3 UNK         0.0250 
     28 CB         25.3802   -3.7557   -3.4835 C.3       3 UNK        -0.1990 
     29 N          25.2498   -1.8524   -1.9498 N.am      3 UNK        -0.4232 
     30 C          24.7280   -0.8530   -1.2223 C.2       2 UNK         0.4993 
     31 O          23.5921   -0.4077   -1.3959 O.2       2 UNK        -0.5286 
     32 CA         25.5907   -0.2624   -0.0889 C.3       2 UNK         0.0209 
     33 CB         25.0079   -0.6342    1.2853 C.3       2 UNK        -0.1931 
     34 N          26.9913   -0.6893   -0.1349 N.am      2 UNK        -0.4546 
     35 C          27.9163   -0.2007   -0.9732 C.2       1 UNK         0.5154 
     36 O          27.7027    0.7190   -1.7625 O.2       1 UNK        -0.5181 
     37 C          27.2366   -0.7032   -8.0265 C.2       5 UNK         0.5014 
     38 O          27.7908   -0.3283   -9.0594 O.2       5 UNK        -0.5248 
     39 N          27.2215    0.0049   -6.8857 N.am      6 UNK        -0.4434 
     40 CA         27.9383    1.2612   -6.6493 C.3       6 UNK         0.0363 
     41 CB         27.7990    1.6379   -5.1659 C.3       6 UNK        -0.1936 
     42 C          27.5256    2.4367   -7.5564 C.2       6 UNK         0.5081 
     43 O          28.2403    3.4380   -7.5990 O.2       6 UNK        -0.5248 
     44 N          26.4051    2.3024   -8.2793 N.am      7 UNK        -0.4718 
     45 CA         25.9796    3.2331   -9.3246 C.3       7 UNK         0.0273 
     46 CB         24.4986    2.9759   -9.6466 C.3       7 UNK        -0.1935 
     47 C          26.8311    3.1460  -10.6079 C.2       7 UNK         0.5018 
     48 O          26.7973    4.0917  -11.3969 O.2       7 UNK        -0.5186 
     49 N          27.5532    2.0330  -10.8120 N.am      8 UNK        -0.4240 
     50 CA         28.3624    1.7768  -12.0078 C.3       8 UNK         0.0235 
     51 CB         27.6189    0.7872  -12.9213 C.3       8 UNK        -0.2000 
     52 C          29.7708    1.2557  -11.6825 C.2       8 UNK         0.4941 
     53 O          30.7158    1.6218  -12.3836 O.2       8 UNK        -0.5273 
     54 N          29.8989    0.4002  -10.6601 N.am      9 UNK        -0.4262 
     55 CA         31.1606   -0.2031  -10.2300 C.3       9 UNK         0.0264 
     56 CB         30.8521   -1.4366   -9.3617 C.3       9 UNK        -0.1955 
     57 C          32.0357    0.7875   -9.4472 C.2       9 UNK         0.5031 
     58 O          31.5231    1.7455   -8.8624 O.2       9 UNK        -0.5390 
     59 N          33.3403    0.4845   -9.3820 N.am      10 UNK        -0.4204 
     60 CA         34.3583    1.2391   -8.6364 C.3       10 UNK         0.0237 
     61 CB         35.7405    0.6229   -8.9090 C.3       10 UNK        -0.1985 
     62 C          34.1038    1.3355   -7.1184 C.2       10 UNK         0.4970 
     63 O          34.6360    2.2427   -6.4778 O.2       10 UNK        -0.4914 
     64 N          33.2865    0.4211   -6.5807 N.am      11 UNK        -0.4285 
     65 CA         32.7589    0.4551   -5.2096 C.3       11 UNK         0.1007 
     66 C          31.7410    1.6039   -4.9386 C.2       11 UNK         0.5703 
     67 N          31.2435    2.3150   -5.9449 N.am      11 UNK        -0.7361 
     68 O          31.4059    1.8602   -3.7850 O.2       11 UNK        -0.4986 
     69 C69        32.1683   -0.9175   -4.7934 C.3       12 UNK        -0.0947 
     70 S70        33.3989   -2.2631   -4.8802 S.3       12 UNK        -0.2240 
     71 C71        32.5896   -3.4494   -6.0116 C.3       12 UNK         0.0194 
     72 H72        30.1961   -2.3781    2.6901 H         1 UNK         0.0906 
     73 H73        31.2321   -1.0220    3.1384 H         1 UNK         0.0906 
     74 H74        29.5153   -0.9956    3.5499 H         1 UNK         0.0906 
     75 H75        29.6632   -2.3657    0.5094 H         1 UNK         0.3140 
     76 H76        30.0276   -0.0725   -1.1739 H         1 UNK         0.1085 
     77 H77        29.1975   -1.5870   -2.9871 H         1 UNK         0.0836 
     78 H78        30.4968   -2.2641   -2.0523 H         1 UNK         0.0836 
     79 H79        29.0585   -5.7640   -1.9274 H         1 UNK         0.0731 
     80 H80        30.4540   -4.7729   -1.5887 H         1 UNK         0.0731 
     81 H81        31.7286   -3.8066   -3.3882 H         1 UNK         0.1312 
     82 H82        30.5959   -4.5609   -7.4561 H         1 UNK         0.1406 
     83 H83        28.0020   -5.7281   -4.2461 H         1 UNK         0.1631 
     84 H84        27.9104   -6.7893   -6.6619 H         1 UNK         0.0717 
     85 H85        28.6809   -5.8980   -7.9484 H         1 UNK         0.0717 
     86 H86        27.8854   -2.7886   -6.4902 H         1 UNK         0.0934 
     87 H87        28.3122   -3.2444   -8.1219 H         1 UNK         0.0934 
     88 H88        26.2509   -2.3127   -9.0445 H         1 UNK         0.0739 
     89 H89        25.1380   -2.6832   -6.5377 H         1 UNK         0.3093 
     90 H90        22.9008   -0.0990   -6.0995 H         1 UNK         0.0818 
     91 H91        20.9947   -1.6751   -6.3054 H         1 UNK         0.0819 
     92 H92        21.5579   -1.2091   -7.9000 H         1 UNK         0.0819 
     93 H93        21.9804   -2.7889   -7.2555 H         1 UNK         0.0819 
     94 H94        22.8173   -2.6189   -4.8908 H         1 UNK         0.3041 
     95 H95        23.5886   -2.8078   -2.7506 H         1 UNK         0.0784 
     96 H96        24.8650   -4.3179   -4.2633 H         1 UNK         0.0793 
     97 H97        26.3675   -3.4984   -3.8704 H         1 UNK         0.0793 
     98 H98        25.5168   -4.4311   -2.6387 H         1 UNK         0.0793 
     99 H99        26.1987   -2.1411   -1.7568 H         1 UNK         0.3024 
    100 H100       25.5552    0.8245   -0.1949 H         1 UNK         0.1171 
    101 H101       25.5714   -0.1689    2.0944 H         1 UNK         0.0786 
    102 H102       23.9749   -0.2956    1.3771 H         1 UNK         0.0786 
    103 H103       25.0128   -1.7127    1.4478 H         1 UNK         0.0786 
    104 H104       27.2624   -1.4443    0.4787 H         1 UNK         0.2977 
    105 H105       26.6807   -0.3494   -6.1029 H         1 UNK         0.3127 
    106 H106       28.9916    1.0661   -6.8574 H         1 UNK         0.0770 
    107 H107       26.7561    1.7881   -4.8840 H         1 UNK         0.0814 
    108 H108       28.3354    2.5599   -4.9388 H         1 UNK         0.0814 
    109 H109       28.2107    0.8620   -4.5201 H         1 UNK         0.0814 
    110 H110       25.8660    1.4500   -8.1838 H         1 UNK         0.2983 
    111 H111       26.0748    4.2507   -8.9389 H         1 UNK         0.0947 
    112 H112       24.3415    1.9721  -10.0439 H         1 UNK         0.0806 
    113 H113       23.8736    3.0864   -8.7602 H         1 UNK         0.0806 
    114 H114       24.1316    3.6830  -10.3919 H         1 UNK         0.0806 
    115 H115       27.5368    1.3054  -10.1036 H         1 UNK         0.3000 
    116 H116       28.5048    2.7054  -12.5648 H         1 UNK         0.0850 
    117 H117       28.2000    0.5690  -13.8184 H         1 UNK         0.0810 
    118 H118       26.6611    1.1935  -13.2469 H         1 UNK         0.0810 
    119 H119       27.4265   -0.1602  -12.4160 H         1 UNK         0.0810 
    120 H120       29.0805    0.1495  -10.1071 H         1 UNK         0.3040 
    121 H121       31.7058   -0.5274  -11.1192 H         1 UNK         0.0766 
    122 H122       30.3838   -1.1593   -8.4161 H         1 UNK         0.0812 
    123 H123       31.7618   -1.9898   -9.1275 H         1 UNK         0.0812 
    124 H124       30.1821   -2.1264   -9.8755 H         1 UNK         0.0812 
    125 H125       33.6697   -0.3274   -9.8851 H         1 UNK         0.3205 
    126 H126       34.3548    2.2597   -9.0246 H         1 UNK         0.0754 
    127 H127       36.5254    1.1804   -8.3956 H         1 UNK         0.0769 
    128 H128       35.9806    0.6377   -9.9724 H         1 UNK         0.0769 
    129 H129       35.7970   -0.4106   -8.5643 H         1 UNK         0.0769 
    130 H130       32.9088   -0.2937   -7.1810 H         1 UNK         0.2981 
    131 H131       33.6056    0.6566   -4.5506 H         1 UNK         0.0541 
    132 H132       31.4844    2.1088   -6.9092 H         1 UNK         0.3459 
    133 H133       30.5983    3.0618   -5.7464 H         1 UNK         0.3459 
    134 H134       31.8048   -0.8813   -3.7651 H         1 UNK         0.0612 
    135 H135       31.3033   -1.1634   -5.4123 H         1 UNK         0.0612 
    136 H136       33.3005   -4.2451   -6.2364 H         1 UNK         0.0624 
    137 H137       32.3891   -2.9385   -6.9538 H         1 UNK         0.0624 
@<TRIPOS>BOND
     1    1    2 1    
     2    1   72 1    
     3    1   73 1    
     4    1   74 1    
     5    2    3 2    
     6    2    4 am   BACKBONE|DICT|INTERRES
     7    4    5 1    
     8    4   75 1    
     9    5    6 1    
    10    5   35 1    
    11    5   76 1    
    12    6    7 1    
    13    6   77 1    
    14    6   78 1    
    15    7    8 1    
    16    8    9 1    
    17    8   79 1    
    18    8   80 1    
    19    9   10 ar   
    20    9   14 ar   
    21   10   11 ar   
    22   10   81 1    
    23   11   12 ar   
    24   11   71 1    
    25   12   13 ar   
    26   12   82 1    
    27   13   14 ar   
    28   13   15 1    
    29   14   83 1    
    30   15   16 1    
    31   15   84 1    
    32   15   85 1    
    33   16   17 1    
    34   17   18 1    
    35   17   86 1    
    36   17   87 1    
    37   18   19 1    
    38   18   37 1    
    39   18   88 1    
    40   19   20 am   BACKBONE|DICT|INTERRES
    41   19   89 1    
    42   20   21 2    
    43   20   22 1    
    44   22   23 1    
    45   22   24 1    
    46   22   90 1    
    47   23   91 1    
    48   23   92 1    
    49   23   93 1    
    50   24   25 am   BACKBONE|DICT|INTERRES
    51   24   94 1    
    52   25   26 2    
    53   25   27 1    
    54   27   28 1    
    55   27   29 1    
    56   27   95 1    
    57   28   96 1    
    58   28   97 1    
    59   28   98 1    
    60   29   30 am   BACKBONE|DICT|INTERRES
    61   29   99 1    
    62   30   31 2    
    63   30   32 1    
    64   32   33 1    
    65   32   34 1    
    66   32  100 1    
    67   33  101 1    
    68   33  102 1    
    69   33  103 1    
    70   34   35 am   BACKBONE|DICT|INTERRES
    71   34  104 1    
    72   35   36 2    
    73   37   38 2    
    74   37   39 am   BACKBONE|DICT|INTERRES
    75   39   40 1    
    76   39  105 1    
    77   40   41 1    
    78   40   42 1    
    79   40  106 1    
    80   41  107 1    
    81   41  108 1    
    82   41  109 1    
    83   42   43 2    
    84   42   44 am   BACKBONE|DICT|INTERRES
    85   44   45 1    
    86   44  110 1    
    87   45   46 1    
    88   45   47 1    
    89   45  111 1    
    90   46  112 1    
    91   46  113 1    
    92   46  114 1    
    93   47   48 2    
    94   47   49 am   BACKBONE|DICT|INTERRES
    95   49   50 1    
    96   49  115 1    
    97   50   51 1    
    98   50   52 1    
    99   50  116 1    
   100   51  117 1    
   101   51  118 1    
   102   51  119 1    
   103   52   53 2    
   104   52   54 am   BACKBONE|DICT|INTERRES
   105   54   55 1    
   106   54  120 1    
   107   55   56 1    
   108   55   57 1    
   109   55  121 1    
   110   56  122 1    
   111   56  123 1    
   112   56  124 1    
   113   57   58 2    
   114   57   59 am   BACKBONE|DICT|INTERRES
   115   59   60 1    
   116   59  125 1    
   117   60   61 1    
   118   60   62 1    
   119   60  126 1    
   120   61  127 1    
   121   61  128 1    
   122   61  129 1    
   123   62   63 2    
   124   62   64 am   BACKBONE|DICT|INTERRES
   125   64   65 1    
   126   64  130 1    
   127   65   66 1    
   128   65   69 1    
   129   65  131 1    
   130   66   67 am   BACKBONE|DICT|INTERRES
   131   66   68 2    
   132   67  132 1    
   133   67  133 1    
   134   69   70 1    
   135   69  134 1    
   136   69  135 1    
   137   70   71 1    
   138   71  136 1    
   139   71  137 1    
@<TRIPOS>SUBSTRUCTURE
     1 UNK         1 GROUP             0       ****    0 ROOT    
