@<TRIPOS>MOLECULE
3R137
137   139    1
SMALL
USER_CHARGES


@<TRIPOS>ATOM
      1 CA         30.3416    0.2156   -0.3234 C.3       0 UNK        -0.2020 
      2 C          29.4134    0.7674    0.7547 C.2       0 UNK         0.4855 
      3 O          29.8636    1.5306    1.6071 O.2       0 UNK        -0.5197 
      4 N          28.1208    0.4237    0.7627 N.am      1 UNK        -0.4892 
      5 CA         27.4107   -0.4244   -0.1948 C.3       1 UNK         0.0835 
      6 C6         27.6495   -1.9456    0.0374 C.3       12 UNK        -0.0855 
      7 S7         27.5881   -2.8869   -1.5309 S.3       12 UNK        -0.2931 
      8 C8         29.2567   -3.6128   -1.6343 C.3       12 UNK         0.0378 
      9 C9         29.8635   -3.4344   -3.0184 C.ar      12 UNK        -0.0802 
     10 C10        30.7096   -2.3515   -3.2791 C.ar      12 UNK        -0.0944 
     11 C11        31.3128   -2.2096   -4.5312 C.ar      12 UNK        -0.0787 
     12 C12        31.0666   -3.1590   -5.5252 C.ar      12 UNK        -0.0862 
     13 C13        30.2229   -4.2453   -5.2811 C.ar      12 UNK        -0.0733 
     14 C14        29.6169   -4.3738   -4.0259 C.ar      12 UNK        -0.0832 
     15 C15        30.0096   -5.3045   -6.3566 C.3       12 UNK         0.0240 
     16 S16        29.3856   -4.6157   -7.9248 S.3       12 UNK        -0.2522 
     17 C17        27.7328   -4.0438   -7.4250 C.3       12 UNK        -0.0967 
     18 CA         27.3299   -2.6805   -8.0407 C.3       5 UNK         0.0660 
     19 N          25.8778   -2.5165   -7.9392 N.am      5 UNK        -0.4015 
     20 C          25.1502   -1.5043   -8.4268 C.2       4 UNK         0.4946 
     21 O          25.6114   -0.5829   -9.0954 O.2       4 UNK        -0.5353 
     22 CA         23.6559   -1.4950   -8.0575 C.3       4 UNK         0.0277 
     23 CB         22.8361   -2.2376   -9.1245 C.3       4 UNK        -0.1981 
     24 N          23.3659   -2.0584   -6.7324 N.am      4 UNK        -0.4209 
     25 C          23.8874   -1.6238   -5.5764 C.2       3 UNK         0.4942 
     26 O          24.7025   -0.7000   -5.4875 O.2       3 UNK        -0.5208 
     27 CA         23.4808   -2.3973   -4.3207 C.3       3 UNK         0.0250 
     28 CB         24.2762   -3.7125   -4.2110 C.3       3 UNK        -0.1990 
     29 N          23.7497   -1.5680   -3.1516 N.am      3 UNK        -0.4232 
     30 C          23.1051   -1.6433   -1.9823 C.2       2 UNK         0.4993 
     31 O          22.1806   -2.4280   -1.7617 O.2       2 UNK        -0.5286 
     32 CA         23.6220   -0.7229   -0.8669 C.3       2 UNK         0.0209 
     33 CB         22.9513   -0.9939    0.4979 C.3       2 UNK        -0.1931 
     34 N          25.0729   -0.8808   -0.7672 N.am      2 UNK        -0.4546 
     35 C          25.9193   -0.0295   -0.1808 C.2       1 UNK         0.5154 
     36 O          25.5649    1.0233    0.3580 O.2       1 UNK        -0.5181 
     37 C          28.1024   -1.4953   -7.4118 C.2       5 UNK         0.5014 
     38 O          29.0499   -0.9821   -8.0155 O.2       5 UNK        -0.5248 
     39 N          27.6512   -1.0532   -6.2288 N.am      6 UNK        -0.4434 
     40 CA         28.1986    0.1038   -5.5244 C.3       6 UNK         0.0363 
     41 CB         27.8377    0.0268   -4.0348 C.3       6 UNK        -0.1936 
     42 C          27.7130    1.4250   -6.1349 C.2       6 UNK         0.5081 
     43 O          28.5084    2.3561   -6.2457 O.2       6 UNK        -0.5248 
     44 N          26.4381    1.4829   -6.5498 N.am      7 UNK        -0.4718 
     45 CA         25.8306    2.6519   -7.1999 C.3       7 UNK         0.0273 
     46 CB         24.3179    2.4363   -7.3545 C.3       7 UNK        -0.1935 
     47 C          26.4733    2.9903   -8.5577 C.2       7 UNK         0.5018 
     48 O          26.6774    4.1677   -8.8544 O.2       7 UNK        -0.5186 
     49 N          26.8207    1.9541   -9.3340 N.am      8 UNK        -0.4240 
     50 CA         27.5914    2.0501  -10.5773 C.3       8 UNK         0.0235 
     51 CB         27.4120    0.7487  -11.3774 C.3       8 UNK        -0.2000 
     52 C          29.0899    2.3307  -10.3527 C.2       8 UNK         0.4941 
     53 O          29.7888    2.6163  -11.3258 O.2       8 UNK        -0.5273 
     54 N          29.5542    2.2365   -9.0967 N.am      9 UNK        -0.4262 
     55 CA         30.9285    2.4288   -8.6296 C.3       9 UNK         0.0264 
     56 CB         31.3632    3.9010   -8.7911 C.3       9 UNK        -0.1955 
     57 C          31.9141    1.4323   -9.2628 C.2       9 UNK         0.5031 
     58 O          32.9896    1.8333   -9.7139 O.2       9 UNK        -0.5390 
     59 N          31.5531    0.1385   -9.2558 N.am      10 UNK        -0.4204 
     60 CA         32.3744   -0.9557   -9.7964 C.3       10 UNK         0.0237 
     61 CB         31.5654   -2.2598   -9.7619 C.3       10 UNK        -0.1985 
     62 C          33.7355   -1.1415   -9.0928 C.2       10 UNK         0.4970 
     63 O          34.6407   -1.7361   -9.6791 O.2       10 UNK        -0.4914 
     64 N          33.8607   -0.6100   -7.8708 N.am      11 UNK        -0.4285 
     65 CA         35.1144   -0.4830   -7.1149 C.3       11 UNK         0.1007 
     66 C          36.0989    0.5823   -7.6844 C.2       11 UNK         0.5703 
     67 N          35.6964    1.4559   -8.6015 N.am      11 UNK        -0.7361 
     68 O          37.2616    0.6101   -7.2879 O.2       11 UNK        -0.4986 
     69 C69        34.8373   -0.2285   -5.6085 C.3       12 UNK        -0.0947 
     70 S70        33.9807   -1.6276   -4.8162 S.3       12 UNK        -0.2240 
     71 C71        32.2546   -1.0525   -4.8149 C.3       12 UNK         0.0194 
     72 H72        29.9751    0.4503   -1.3217 H         1 UNK         0.0906 
     73 H73        30.4485   -0.8629   -0.2266 H         1 UNK         0.0906 
     74 H74        31.3352    0.6535   -0.2296 H         1 UNK         0.0906 
     75 H75        27.5000    0.8619    1.4330 H         1 UNK         0.3140 
     76 H76        27.7625   -0.1523   -1.1898 H         1 UNK         0.1085 
     77 H77        26.9201   -2.3640    0.7343 H         1 UNK         0.0836 
     78 H78        28.6099   -2.1134    0.5231 H         1 UNK         0.0836 
     79 H79        29.9240   -3.1775   -0.8906 H         1 UNK         0.0731 
     80 H80        29.1932   -4.6740   -1.3890 H         1 UNK         0.0731 
     81 H81        30.9132   -1.6280   -2.5033 H         1 UNK         0.1312 
     82 H82        31.5500   -3.0615   -6.4868 H         1 UNK         0.1406 
     83 H83        28.9704   -5.2167   -3.8216 H         1 UNK         0.1631 
     84 H84        29.3221   -6.0790   -6.0130 H         1 UNK         0.0717 
     85 H85        30.9608   -5.8024   -6.5489 H         1 UNK         0.0717 
     86 H86        27.0369   -4.8195   -7.7496 H         1 UNK         0.0934 
     87 H87        27.6513   -4.0151   -6.3368 H         1 UNK         0.0934 
     88 H88        27.5697   -2.6941   -9.1061 H         1 UNK         0.0739 
     89 H89        25.3875   -3.2247   -7.4146 H         1 UNK         0.3093 
     90 H90        23.3263   -0.4560   -8.0438 H         1 UNK         0.0818 
     91 H91        23.0195   -1.8208  -10.1161 H         1 UNK         0.0819 
     92 H92        23.0879   -3.2980   -9.1655 H         1 UNK         0.0819 
     93 H93        21.7660   -2.1527   -8.9343 H         1 UNK         0.0819 
     94 H94        22.7096   -2.8263   -6.7061 H         1 UNK         0.3041 
     95 H95        22.4114   -2.6122   -4.3799 H         1 UNK         0.0784 
     96 H96        24.0988   -4.3585   -5.0715 H         1 UNK         0.0793 
     97 H97        25.3505   -3.5303   -4.1509 H         1 UNK         0.0793 
     98 H98        23.9870   -4.2761   -3.3237 H         1 UNK         0.0793 
     99 H99        24.4525   -0.8547   -3.3013 H         1 UNK         0.3024 
    100 H100       23.3956    0.3025   -1.1681 H         1 UNK         0.1171 
    101 H101       23.1605   -2.0035    0.8535 H         1 UNK         0.0786 
    102 H102       23.2923   -0.2935    1.2601 H         1 UNK         0.0786 
    103 H103       21.8679   -0.8876    0.4298 H         1 UNK         0.0786 
    104 H104       25.4538   -1.7238   -1.1824 H         1 UNK         0.2977 
    105 H105       26.8156   -1.4641   -5.8358 H         1 UNK         0.3127 
    106 H106       29.2876    0.0755   -5.6068 H         1 UNK         0.0770 
    107 H107       28.2672    0.8676   -3.4887 H         1 UNK         0.0814 
    108 H108       26.7599    0.0459   -3.8725 H         1 UNK         0.0814 
    109 H109       28.2302   -0.8855   -3.5891 H         1 UNK         0.0814 
    110 H110       25.8365    0.6826   -6.3787 H         1 UNK         0.2983 
    111 H111       25.9858    3.5076   -6.5391 H         1 UNK         0.0947 
    112 H112       24.0972    1.6689   -8.0949 H         1 UNK         0.0806 
    113 H113       23.8296    3.3531   -7.6870 H         1 UNK         0.0806 
    114 H114       23.8545    2.1431   -6.4121 H         1 UNK         0.0806 
    115 H115       26.5317    1.0173   -9.0557 H         1 UNK         0.3000 
    116 H116       27.1899    2.8760  -11.1682 H         1 UNK         0.0850 
    117 H117       27.9375    0.7970  -12.3320 H         1 UNK         0.0810 
    118 H118       26.3609    0.5591  -11.5959 H         1 UNK         0.0810 
    119 H119       27.8011   -0.1129  -10.8325 H         1 UNK         0.0810 
    120 H120       28.8876    2.0161   -8.3669 H         1 UNK         0.3040 
    121 H121       30.9208    2.2073   -7.5614 H         1 UNK         0.0766 
    122 H122       31.4385    4.1898   -9.8400 H         1 UNK         0.0812 
    123 H123       32.3401    4.0717   -8.3370 H         1 UNK         0.0812 
    124 H124       30.6584    4.5765   -8.3062 H         1 UNK         0.0812 
    125 H125       30.6514   -0.1243   -8.8623 H         1 UNK         0.3205 
    126 H126       32.5868   -0.7163  -10.8403 H         1 UNK         0.0754 
    127 H127       32.1300   -3.0878  -10.1926 H         1 UNK         0.0769 
    128 H128       30.6376   -2.1695  -10.3273 H         1 UNK         0.0769 
    129 H129       31.3066   -2.5360   -8.7409 H         1 UNK         0.0769 
    130 H130       33.0623   -0.1368   -7.4807 H         1 UNK         0.2981 
    131 H131       35.6380   -1.4374   -7.1972 H         1 UNK         0.0541 
    132 H132       34.7424    1.4622   -8.9500 H         1 UNK         0.3459 
    133 H133       36.3567    2.1296   -8.9545 H         1 UNK         0.3459 
    134 H134       34.2626    0.6885   -5.4658 H         1 UNK         0.0612 
    135 H135       35.7736   -0.0863   -5.0655 H         1 UNK         0.0612 
    136 H136       32.1370   -0.2608   -4.0733 H         1 UNK         0.0624 
    137 H137       32.0004   -0.6158   -5.7809 H         1 UNK         0.0624 
@<TRIPOS>BOND
     1    1    2 1    
     2    1   72 1    
     3    1   73 1    
     4    1   74 1    
     5    2    3 2    
     6    2    4 am   BACKBONE|DICT|INTERRES
     7    4    5 1    
     8    4   75 1    
     9    5    6 1    
    10    5   35 1    
    11    5   76 1    
    12    6    7 1    
    13    6   77 1    
    14    6   78 1    
    15    7    8 1    
    16    8    9 1    
    17    8   79 1    
    18    8   80 1    
    19    9   10 ar   
    20    9   14 ar   
    21   10   11 ar   
    22   10   81 1    
    23   11   12 ar   
    24   11   71 1    
    25   12   13 ar   
    26   12   82 1    
    27   13   14 ar   
    28   13   15 1    
    29   14   83 1    
    30   15   16 1    
    31   15   84 1    
    32   15   85 1    
    33   16   17 1    
    34   17   18 1    
    35   17   86 1    
    36   17   87 1    
    37   18   19 1    
    38   18   37 1    
    39   18   88 1    
    40   19   20 am   BACKBONE|DICT|INTERRES
    41   19   89 1    
    42   20   21 2    
    43   20   22 1    
    44   22   23 1    
    45   22   24 1    
    46   22   90 1    
    47   23   91 1    
    48   23   92 1    
    49   23   93 1    
    50   24   25 am   BACKBONE|DICT|INTERRES
    51   24   94 1    
    52   25   26 2    
    53   25   27 1    
    54   27   28 1    
    55   27   29 1    
    56   27   95 1    
    57   28   96 1    
    58   28   97 1    
    59   28   98 1    
    60   29   30 am   BACKBONE|DICT|INTERRES
    61   29   99 1    
    62   30   31 2    
    63   30   32 1    
    64   32   33 1    
    65   32   34 1    
    66   32  100 1    
    67   33  101 1    
    68   33  102 1    
    69   33  103 1    
    70   34   35 am   BACKBONE|DICT|INTERRES
    71   34  104 1    
    72   35   36 2    
    73   37   38 2    
    74   37   39 am   BACKBONE|DICT|INTERRES
    75   39   40 1    
    76   39  105 1    
    77   40   41 1    
    78   40   42 1    
    79   40  106 1    
    80   41  107 1    
    81   41  108 1    
    82   41  109 1    
    83   42   43 2    
    84   42   44 am   BACKBONE|DICT|INTERRES
    85   44   45 1    
    86   44  110 1    
    87   45   46 1    
    88   45   47 1    
    89   45  111 1    
    90   46  112 1    
    91   46  113 1    
    92   46  114 1    
    93   47   48 2    
    94   47   49 am   BACKBONE|DICT|INTERRES
    95   49   50 1    
    96   49  115 1    
    97   50   51 1    
    98   50   52 1    
    99   50  116 1    
   100   51  117 1    
   101   51  118 1    
   102   51  119 1    
   103   52   53 2    
   104   52   54 am   BACKBONE|DICT|INTERRES
   105   54   55 1    
   106   54  120 1    
   107   55   56 1    
   108   55   57 1    
   109   55  121 1    
   110   56  122 1    
   111   56  123 1    
   112   56  124 1    
   113   57   58 2    
   114   57   59 am   BACKBONE|DICT|INTERRES
   115   59   60 1    
   116   59  125 1    
   117   60   61 1    
   118   60   62 1    
   119   60  126 1    
   120   61  127 1    
   121   61  128 1    
   122   61  129 1    
   123   62   63 2    
   124   62   64 am   BACKBONE|DICT|INTERRES
   125   64   65 1    
   126   64  130 1    
   127   65   66 1    
   128   65   69 1    
   129   65  131 1    
   130   66   67 am   BACKBONE|DICT|INTERRES
   131   66   68 2    
   132   67  132 1    
   133   67  133 1    
   134   69   70 1    
   135   69  134 1    
   136   69  135 1    
   137   70   71 1    
   138   71  136 1    
   139   71  137 1    
@<TRIPOS>SUBSTRUCTURE
     1 UNK         1 GROUP             0       ****    0 ROOT    
