@<TRIPOS>MOLECULE
3R137
137   139    1
SMALL
USER_CHARGES


@<TRIPOS>ATOM
      1 CA         24.4629   -7.6874   -1.2515 C.3       0 UNK        -0.2020 
      2 C          25.0913   -6.5374   -2.0255 C.2       0 UNK         0.4855 
      3 O          24.7048   -6.2989   -3.1697 O.2       0 UNK        -0.5197 
      4 N          26.0580   -5.8448   -1.4044 N.am      1 UNK        -0.4892 
      5 CA         26.7798   -4.6602   -1.8927 C.3       1 UNK         0.0835 
      6 C6         27.4222   -4.8669   -3.2955 C.3       12 UNK        -0.0855 
      7 S7         28.6573   -3.6033   -3.7449 S.3       12 UNK        -0.2931 
      8 C8         30.1731   -4.2288   -2.9428 C.3       12 UNK         0.0378 
      9 C9         31.2667   -3.1662   -2.9212 C.ar      12 UNK        -0.0802 
     10 C10        32.5720   -3.4653   -3.3270 C.ar      12 UNK        -0.0944 
     11 C11        33.5651   -2.4784   -3.3062 C.ar      12 UNK        -0.0787 
     12 C12        33.2334   -1.1756   -2.9158 C.ar      12 UNK        -0.0862 
     13 C13        31.9307   -0.8630   -2.5184 C.ar      12 UNK        -0.0733 
     14 C14        30.9705   -1.8737   -2.4803 C.ar      12 UNK        -0.0832 
     15 C15        31.5576    0.5594   -2.1231 C.3       12 UNK         0.0240 
     16 S16        30.9536    1.5273   -3.5478 S.3       12 UNK        -0.2522 
     17 C17        29.2279    0.9531   -3.7222 C.3       12 UNK        -0.0967 
     18 CA         28.7271    1.0074   -5.1888 C.3       5 UNK         0.0660 
     19 N          27.7538   -0.0482   -5.4872 N.am      5 UNK        -0.4015 
     20 C          27.4119   -0.4287   -6.7262 C.2       4 UNK         0.4946 
     21 O          27.9664   -0.0052   -7.7391 O.2       4 UNK        -0.5353 
     22 CA         26.2481   -1.4227   -6.8845 C.3       4 UNK         0.0277 
     23 CB         26.7604   -2.8562   -7.0864 C.3       4 UNK        -0.1981 
     24 N          25.3003   -1.3831   -5.7697 N.am      4 UNK        -0.4209 
     25 C          24.4625   -0.3616   -5.5435 C.2       3 UNK         0.4942 
     26 O          24.3819    0.6292   -6.2680 O.2       3 UNK        -0.5208 
     27 CA         23.6243   -0.4285   -4.2586 C.3       3 UNK         0.0250 
     28 CB         22.3996   -1.3364   -4.4510 C.3       3 UNK        -0.1990 
     29 N          24.3932   -0.8767   -3.0941 N.am      3 UNK        -0.4232 
     30 C          25.4713   -0.2612   -2.5930 C.2       2 UNK         0.4993 
     31 O          25.9838    0.7382   -3.0987 O.2       2 UNK        -0.5286 
     32 CA         26.1081   -0.8760   -1.3371 C.3       2 UNK         0.0209 
     33 CB         25.1714   -0.7731   -0.1166 C.3       2 UNK        -0.1931 
     34 N          26.6086   -2.2456   -1.5283 N.am      2 UNK        -0.4546 
     35 C          25.9255   -3.3735   -1.7791 C.2       1 UNK         0.5154 
     36 O          24.6985   -3.4133   -1.9019 O.2       1 UNK        -0.5181 
     37 C          28.1401    2.3847   -5.5473 C.2       5 UNK         0.5014 
     38 O          28.7831    3.1524   -6.2635 O.2       5 UNK        -0.5248 
     39 N          26.9031    2.6432   -5.0943 N.am      6 UNK        -0.4434 
     40 CA         26.1324    3.8542   -5.3934 C.3       6 UNK         0.0363 
     41 CB         24.8216    3.8369   -4.5910 C.3       6 UNK        -0.1936 
     42 C          25.8515    4.0422   -6.8957 C.2       6 UNK         0.5081 
     43 O          25.9373    5.1655   -7.3921 O.2       6 UNK        -0.5248 
     44 N          25.5561    2.9397   -7.5975 N.am      7 UNK        -0.4718 
     45 CA         25.3614    2.8991   -9.0503 C.3       7 UNK         0.0273 
     46 CB         24.5894    1.6187   -9.4102 C.3       7 UNK        -0.1935 
     47 C          26.6696    2.9728   -9.8632 C.2       7 UNK         0.5018 
     48 O          26.5948    3.1281  -11.0828 O.2       7 UNK        -0.5186 
     49 N          27.8274    2.8322   -9.1974 N.am      8 UNK        -0.4240 
     50 CA         29.1810    2.7505   -9.7646 C.3       8 UNK         0.0235 
     51 CB         29.5870    4.0830  -10.4298 C.3       8 UNK        -0.2000 
     52 C          29.3847    1.5272  -10.6846 C.2       8 UNK         0.4941 
     53 O          30.1573    1.5951  -11.6424 O.2       8 UNK        -0.5273 
     54 N          28.6931    0.4269  -10.3648 N.am      9 UNK        -0.4262 
     55 CA         28.8191   -0.8798  -11.0089 C.3       9 UNK         0.0264 
     56 CB         27.4409   -1.5614  -11.0270 C.3       9 UNK        -0.1955 
     57 C          29.8535   -1.7660  -10.2925 C.2       9 UNK         0.5031 
     58 O          30.4350   -2.6420  -10.9352 O.2       9 UNK        -0.5390 
     59 N          30.0660   -1.5272   -8.9892 N.am      10 UNK        -0.4204 
     60 CA         31.1072   -2.1487   -8.1682 C.3       10 UNK         0.0237 
     61 CB         30.6240   -2.2337   -6.7041 C.3       10 UNK        -0.1985 
     62 C          32.4522   -1.4079   -8.3287 C.2       10 UNK         0.4970 
     63 O          32.7552   -0.9053   -9.4131 O.2       10 UNK        -0.4914 
     64 N          33.2550   -1.3831   -7.2591 N.am      11 UNK        -0.4285 
     65 CA         34.5933   -0.7778   -7.2099 C.3       11 UNK         0.1007 
     66 C          34.5920    0.7522   -7.4845 C.2       11 UNK         0.5703 
     67 N          35.6373    1.2691   -8.1166 N.am      11 UNK        -0.7361 
     68 O          33.6790    1.4763   -7.0922 O.2       11 UNK        -0.4986 
     69 C69        35.3070   -1.0852   -5.8686 C.3       12 UNK        -0.0947 
     70 S70        35.3130   -2.8635   -5.4520 S.3       12 UNK        -0.2240 
     71 C71        35.0052   -2.8312   -3.6584 C.3       12 UNK         0.0194 
     72 H72        23.3940   -7.5150   -1.1280 H         1 UNK         0.0906 
     73 H73        24.5963   -8.6225   -1.7949 H         1 UNK         0.0906 
     74 H74        24.9033   -7.8055   -0.2616 H         1 UNK         0.0906 
     75 H75        26.2909   -6.1081   -0.4562 H         1 UNK         0.3140 
     76 H76        27.5973   -4.5449   -1.1794 H         1 UNK         0.1085 
     77 H77        26.6562   -4.8694   -4.0724 H         1 UNK         0.0836 
     78 H78        27.9018   -5.8457   -3.3476 H         1 UNK         0.0836 
     79 H79        30.5090   -5.1232   -3.4700 H         1 UNK         0.0731 
     80 H80        29.9554   -4.5281   -1.9171 H         1 UNK         0.0731 
     81 H81        32.8222   -4.4687   -3.6440 H         1 UNK         0.1312 
     82 H82        33.9908   -0.4039   -2.9087 H         1 UNK         0.1406 
     83 H83        29.9743   -1.6513   -2.1297 H         1 UNK         0.1631 
     84 H84        32.4292    1.0643   -1.7039 H         1 UNK         0.0717 
     85 H85        30.8032    0.5547   -1.3348 H         1 UNK         0.0717 
     86 H86        29.1699   -0.0725   -3.3697 H         1 UNK         0.0934 
     87 H87        28.5908    1.5260   -3.0452 H         1 UNK         0.0934 
     88 H88        29.5823    0.8427   -5.8478 H         1 UNK         0.0739 
     89 H89        27.2187   -0.4010   -4.7075 H         1 UNK         0.3093 
     90 H90        25.7097   -1.1382   -7.7904 H         1 UNK         0.0818 
     91 H91        27.4800   -2.9068   -7.9044 H         1 UNK         0.0819 
     92 H92        27.2534   -3.2409   -6.1960 H         1 UNK         0.0819 
     93 H93        25.9446   -3.5353   -7.3344 H         1 UNK         0.0819 
     94 H94        25.3034   -2.1618   -5.1267 H         1 UNK         0.3041 
     95 H95        23.2701    0.5826   -4.0473 H         1 UNK         0.0784 
     96 H96        21.8084   -1.0182   -5.3110 H         1 UNK         0.0793 
     97 H97        22.6867   -2.3757   -4.6170 H         1 UNK         0.0793 
     98 H98        21.7443   -1.3060   -3.5802 H         1 UNK         0.0793 
     99 H99        24.1087   -1.7449   -2.6473 H         1 UNK         0.3024 
    100 H100       26.9864   -0.2669   -1.1148 H         1 UNK         0.1171 
    101 H101       25.6686   -1.1143    0.7914 H         1 UNK         0.0786 
    102 H102       24.8656    0.2604    0.0521 H         1 UNK         0.0786 
    103 H103       24.2622   -1.3622   -0.2391 H         1 UNK         0.0786 
    104 H104       27.6146   -2.3291   -1.4879 H         1 UNK         0.2977 
    105 H105       26.4592    1.9595   -4.4844 H         1 UNK         0.3127 
    106 H106       26.7251    4.7088   -5.0606 H         1 UNK         0.0770 
    107 H107       24.1910    2.9907   -4.8655 H         1 UNK         0.0814 
    108 H108       24.2442    4.7453   -4.7676 H         1 UNK         0.0814 
    109 H109       25.0129    3.7766   -3.5195 H         1 UNK         0.0814 
    110 H110       25.4077    2.0691   -7.0932 H         1 UNK         0.2983 
    111 H111       24.7524    3.7582   -9.3401 H         1 UNK         0.0947 
    112 H112       24.3613    1.5840  -10.4764 H         1 UNK         0.0806 
    113 H113       23.6415    1.5612   -8.8748 H         1 UNK         0.0806 
    114 H114       25.1647    0.7242   -9.1717 H         1 UNK         0.0806 
    115 H115       27.7797    2.7274   -8.1907 H         1 UNK         0.3000 
    116 H116       29.8477    2.5944   -8.9149 H         1 UNK         0.0850 
    117 H117       30.6400    4.0728  -10.7137 H         1 UNK         0.0810 
    118 H118       29.4440    4.9237   -9.7509 H         1 UNK         0.0810 
    119 H119       29.0096    4.2782  -11.3338 H         1 UNK         0.0810 
    120 H120       28.1473    0.4494   -9.5059 H         1 UNK         0.3040 
    121 H121       29.1495   -0.7485  -12.0415 H         1 UNK         0.0766 
    122 H122       26.7166   -0.9707  -11.5881 H         1 UNK         0.0812 
    123 H123       27.0461   -1.7047  -10.0211 H         1 UNK         0.0812 
    124 H124       27.4963   -2.5425  -11.5005 H         1 UNK         0.0812 
    125 H125       29.5059   -0.8073   -8.5425 H         1 UNK         0.3205 
    126 H126       31.2659   -3.1696   -8.5213 H         1 UNK         0.0754 
    127 H127       31.2929   -2.8423   -6.0944 H         1 UNK         0.0769 
    128 H128       29.6434   -2.7020   -6.6388 H         1 UNK         0.0769 
    129 H129       30.5551   -1.2515   -6.2369 H         1 UNK         0.0769 
    130 H130       32.9385   -1.8052   -6.3992 H         1 UNK         0.2981 
    131 H131       35.1697   -1.2523   -8.0066 H         1 UNK         0.0541 
    132 H132       36.3982    0.6873   -8.4310 H         1 UNK         0.3459 
    133 H133       35.6619    2.2619   -8.2893 H         1 UNK         0.3459 
    134 H134       34.8404   -0.5209   -5.0620 H         1 UNK         0.0612 
    135 H135       36.3453   -0.7512   -5.9074 H         1 UNK         0.0612 
    136 H136       35.2439   -3.8142   -3.2496 H         1 UNK         0.0624 
    137 H137       35.6990   -2.1336   -3.1866 H         1 UNK         0.0624 
@<TRIPOS>BOND
     1    1    2 1    
     2    1   72 1    
     3    1   73 1    
     4    1   74 1    
     5    2    3 2    
     6    2    4 am   BACKBONE|DICT|INTERRES
     7    4    5 1    
     8    4   75 1    
     9    5    6 1    
    10    5   35 1    
    11    5   76 1    
    12    6    7 1    
    13    6   77 1    
    14    6   78 1    
    15    7    8 1    
    16    8    9 1    
    17    8   79 1    
    18    8   80 1    
    19    9   10 ar   
    20    9   14 ar   
    21   10   11 ar   
    22   10   81 1    
    23   11   12 ar   
    24   11   71 1    
    25   12   13 ar   
    26   12   82 1    
    27   13   14 ar   
    28   13   15 1    
    29   14   83 1    
    30   15   16 1    
    31   15   84 1    
    32   15   85 1    
    33   16   17 1    
    34   17   18 1    
    35   17   86 1    
    36   17   87 1    
    37   18   19 1    
    38   18   37 1    
    39   18   88 1    
    40   19   20 am   BACKBONE|DICT|INTERRES
    41   19   89 1    
    42   20   21 2    
    43   20   22 1    
    44   22   23 1    
    45   22   24 1    
    46   22   90 1    
    47   23   91 1    
    48   23   92 1    
    49   23   93 1    
    50   24   25 am   BACKBONE|DICT|INTERRES
    51   24   94 1    
    52   25   26 2    
    53   25   27 1    
    54   27   28 1    
    55   27   29 1    
    56   27   95 1    
    57   28   96 1    
    58   28   97 1    
    59   28   98 1    
    60   29   30 am   BACKBONE|DICT|INTERRES
    61   29   99 1    
    62   30   31 2    
    63   30   32 1    
    64   32   33 1    
    65   32   34 1    
    66   32  100 1    
    67   33  101 1    
    68   33  102 1    
    69   33  103 1    
    70   34   35 am   BACKBONE|DICT|INTERRES
    71   34  104 1    
    72   35   36 2    
    73   37   38 2    
    74   37   39 am   BACKBONE|DICT|INTERRES
    75   39   40 1    
    76   39  105 1    
    77   40   41 1    
    78   40   42 1    
    79   40  106 1    
    80   41  107 1    
    81   41  108 1    
    82   41  109 1    
    83   42   43 2    
    84   42   44 am   BACKBONE|DICT|INTERRES
    85   44   45 1    
    86   44  110 1    
    87   45   46 1    
    88   45   47 1    
    89   45  111 1    
    90   46  112 1    
    91   46  113 1    
    92   46  114 1    
    93   47   48 2    
    94   47   49 am   BACKBONE|DICT|INTERRES
    95   49   50 1    
    96   49  115 1    
    97   50   51 1    
    98   50   52 1    
    99   50  116 1    
   100   51  117 1    
   101   51  118 1    
   102   51  119 1    
   103   52   53 2    
   104   52   54 am   BACKBONE|DICT|INTERRES
   105   54   55 1    
   106   54  120 1    
   107   55   56 1    
   108   55   57 1    
   109   55  121 1    
   110   56  122 1    
   111   56  123 1    
   112   56  124 1    
   113   57   58 2    
   114   57   59 am   BACKBONE|DICT|INTERRES
   115   59   60 1    
   116   59  125 1    
   117   60   61 1    
   118   60   62 1    
   119   60  126 1    
   120   61  127 1    
   121   61  128 1    
   122   61  129 1    
   123   62   63 2    
   124   62   64 am   BACKBONE|DICT|INTERRES
   125   64   65 1    
   126   64  130 1    
   127   65   66 1    
   128   65   69 1    
   129   65  131 1    
   130   66   67 am   BACKBONE|DICT|INTERRES
   131   66   68 2    
   132   67  132 1    
   133   67  133 1    
   134   69   70 1    
   135   69  134 1    
   136   69  135 1    
   137   70   71 1    
   138   71  136 1    
   139   71  137 1    
@<TRIPOS>SUBSTRUCTURE
     1 UNK         1 GROUP             0       ****    0 ROOT    
