@<TRIPOS>MOLECULE
3R137
137   139    1
SMALL
USER_CHARGES


@<TRIPOS>ATOM
      1 CA         22.8877   -4.0045   -2.7703 C.3       0 UNK        -0.2020 
      2 C          24.0208   -3.5030   -1.8875 C.2       0 UNK         0.4855 
      3 O          23.7861   -2.6913   -0.9929 O.2       0 UNK        -0.5197 
      4 N          25.2484   -3.9797   -2.1317 N.am      1 UNK        -0.4892 
      5 CA         26.4697   -3.5411   -1.4487 C.3       1 UNK         0.0835 
      6 C6         27.6398   -4.5019   -1.7576 C.3       12 UNK        -0.0855 
      7 S7         29.1451   -4.1788   -0.7752 S.3       12 UNK        -0.2931 
      8 C8         30.3991   -5.1189   -1.7079 C.3       12 UNK         0.0378 
      9 C9         30.7156   -4.4764   -3.0522 C.ar      12 UNK        -0.0802 
     10 C10        31.6677   -3.4556   -3.1407 C.ar      12 UNK        -0.0944 
     11 C11        31.9662   -2.8675   -4.3741 C.ar      12 UNK        -0.0787 
     12 C12        31.2765   -3.2904   -5.5152 C.ar      12 UNK        -0.0862 
     13 C13        30.3039   -4.2930   -5.4414 C.ar      12 UNK        -0.0733 
     14 C14        30.0603   -4.9085   -4.2095 C.ar      12 UNK        -0.0832 
     15 C15        29.5561   -4.7055   -6.7099 C.3       12 UNK         0.0240 
     16 S16        27.8188   -5.2350   -6.4701 S.3       12 UNK        -0.2522 
     17 C17        27.0285   -3.8000   -5.6641 C.3       12 UNK        -0.0967 
     18 CA         26.5725   -2.7003   -6.6607 C.3       5 UNK         0.0660 
     19 N          25.2969   -2.0766   -6.2849 N.am      5 UNK        -0.4015 
     20 C          24.5954   -1.2612   -7.0890 C.2       4 UNK         0.4946 
     21 O          24.9295   -0.9792   -8.2403 O.2       4 UNK        -0.5353 
     22 CA         23.3106   -0.6332   -6.5177 C.3       4 UNK         0.0277 
     23 CB         22.1258   -1.5997   -6.6783 C.3       4 UNK        -0.1981 
     24 N          23.3943   -0.1928   -5.1200 N.am      4 UNK        -0.4209 
     25 C          24.3004    0.6600   -4.6208 C.2       3 UNK         0.4942 
     26 O          25.2477    1.1056   -5.2667 O.2       3 UNK        -0.5208 
     27 CA         24.1637    1.0687   -3.1497 C.3       3 UNK         0.0250 
     28 CB         22.8727    0.5841   -2.4549 C.3       3 UNK        -0.1990 
     29 N          25.3343    0.5358   -2.4735 N.am      3 UNK        -0.4232 
     30 C          25.9328    1.0025   -1.3778 C.2       2 UNK         0.4993 
     31 O          25.5332    1.9802   -0.7426 O.2       2 UNK        -0.5286 
     32 CA         27.1890    0.2263   -0.9200 C.3       2 UNK         0.0209 
     33 CB         27.7471    0.7400    0.4205 C.3       2 UNK        -0.1931 
     34 N          26.9662   -1.2218   -0.8155 N.am      2 UNK        -0.4546 
     35 C          26.7899   -2.0797   -1.8312 C.2       1 UNK         0.5154 
     36 O          26.8267   -1.7513   -3.0242 O.2       1 UNK        -0.5181 
     37 C          27.6612   -1.6298   -6.8387 C.2       5 UNK         0.5014 
     38 O          28.2756   -1.5510   -7.9028 O.2       5 UNK        -0.5248 
     39 N          27.8511   -0.8061   -5.7989 N.am      6 UNK        -0.4434 
     40 CA         28.8383    0.2699   -5.7749 C.3       6 UNK         0.0363 
     41 CB         28.9138    0.8777   -4.3684 C.3       6 UNK        -0.1936 
     42 C          28.6044    1.3532   -6.8361 C.2       6 UNK         0.5081 
     43 O          29.5725    1.8141   -7.4399 O.2       6 UNK        -0.5248 
     44 N          27.3357    1.7104   -7.0750 N.am      7 UNK        -0.4718 
     45 CA         26.9177    2.6503   -8.1175 C.3       7 UNK         0.0273 
     46 CB         25.4167    2.9461   -7.9706 C.3       7 UNK        -0.1935 
     47 C          27.2334    2.1558   -9.5390 C.2       7 UNK         0.5018 
     48 O          27.6117    2.9666  -10.3852 O.2       7 UNK        -0.5186 
     49 N          27.0861    0.8441   -9.7733 N.am      8 UNK        -0.4240 
     50 CA         27.4413    0.1950  -11.0348 C.3       8 UNK         0.0235 
     51 CB         26.7291   -1.1639  -11.1363 C.3       8 UNK        -0.2000 
     52 C          28.9614    0.0296  -11.1925 C.2       8 UNK         0.4941 
     53 O          29.4890    0.3055  -12.2707 O.2       8 UNK        -0.5273 
     54 N          29.6319   -0.4324  -10.1282 N.am      9 UNK        -0.4262 
     55 CA         31.0646   -0.7321  -10.1185 C.3       9 UNK         0.0264 
     56 CB         31.3897   -1.6100   -8.9027 C.3       9 UNK        -0.1955 
     57 C          31.9700    0.5085  -10.1202 C.2       9 UNK         0.5031 
     58 O          33.0350    0.4545  -10.7368 O.2       9 UNK        -0.5390 
     59 N          31.5534    1.5725   -9.4146 N.am      10 UNK        -0.4204 
     60 CA         32.3152    2.7894   -9.1092 C.3       10 UNK         0.0237 
     61 CB         32.6193    3.6007  -10.3872 C.3       10 UNK        -0.1985 
     62 C          33.5704    2.4547   -8.2811 C.2       10 UNK         0.4970 
     63 O          34.6912    2.5625   -8.7826 O.2       10 UNK        -0.4914 
     64 N          33.3416    2.0100   -7.0368 N.am      11 UNK        -0.4285 
     65 CA         34.3653    1.5130   -6.0960 C.3       11 UNK         0.1007 
     66 C          35.5008    2.5173   -5.7371 C.2       11 UNK         0.5703 
     67 N          35.2962    3.8230   -5.8656 N.am      11 UNK        -0.7361 
     68 O          36.5831    2.1004   -5.3310 O.2       11 UNK        -0.4986 
     69 C69        33.7390    0.9551   -4.7873 C.3       12 UNK        -0.0947 
     70 S70        32.3602   -0.2074   -5.0509 S.3       12 UNK        -0.2240 
     71 C71        33.0437   -1.7918   -4.4771 C.3       12 UNK         0.0194 
     72 H72        22.1421   -4.5193   -2.1650 H         1 UNK         0.0906 
     73 H73        22.4009   -3.1669   -3.2688 H         1 UNK         0.0906 
     74 H74        23.2396   -4.6964   -3.5353 H         1 UNK         0.0906 
     75 H75        25.3787   -4.6520   -2.8731 H         1 UNK         0.3140 
     76 H76        26.2733   -3.5863   -0.3749 H         1 UNK         0.1085 
     77 H77        27.3366   -5.5315   -1.5598 H         1 UNK         0.0836 
     78 H78        27.8729   -4.4557   -2.8182 H         1 UNK         0.0836 
     79 H79        31.3091   -5.1801   -1.1092 H         1 UNK         0.0731 
     80 H80        30.0573   -6.1463   -1.8437 H         1 UNK         0.0731 
     81 H81        32.1823   -3.1275   -2.2478 H         1 UNK         0.1312 
     82 H82        31.5022   -2.8315   -6.4652 H         1 UNK         0.1406 
     83 H83        29.3383   -5.7106   -4.1446 H         1 UNK         0.1631 
     84 H84        30.1025   -5.5260   -7.1762 H         1 UNK         0.0717 
     85 H85        29.5625   -3.8892   -7.4317 H         1 UNK         0.0717 
     86 H86        26.1633   -4.1997   -5.1343 H         1 UNK         0.0934 
     87 H87        27.6832   -3.4088   -4.8844 H         1 UNK         0.0934 
     88 H88        26.4099   -3.1632   -7.6369 H         1 UNK         0.0739 
     89 H89        24.9676   -2.2303   -5.3442 H         1 UNK         0.3093 
     90 H90        23.1016    0.2566   -7.1153 H         1 UNK         0.0818 
     91 H91        21.1842   -1.1242   -6.4030 H         1 UNK         0.0819 
     92 H92        22.0275   -1.9277   -7.7143 H         1 UNK         0.0819 
     93 H93        22.2441   -2.4931   -6.0640 H         1 UNK         0.0819 
     94 H94        22.6557   -0.5045   -4.5065 H         1 UNK         0.3041 
     95 H95        24.1960    2.1596   -3.1159 H         1 UNK         0.0784 
     96 H96        21.9833    0.9587   -2.9634 H         1 UNK         0.0793 
     97 H97        22.8094   -0.5037   -2.4150 H         1 UNK         0.0793 
     98 H98        22.8255    0.9475   -1.4281 H         1 UNK         0.0793 
     99 H99        25.7689   -0.2699   -2.9183 H         1 UNK         0.3024 
    100 H100       27.9549    0.3950   -1.6775 H         1 UNK         0.1171 
    101 H101       27.0302    0.6099    1.2321 H         1 UNK         0.0786 
    102 H102       27.9874    1.8026    0.3638 H         1 UNK         0.0786 
    103 H103       28.6646    0.2187    0.6946 H         1 UNK         0.0786 
    104 H104       26.8850   -1.5812    0.1248 H         1 UNK         0.2977 
    105 H105       27.3188   -0.9578   -4.9502 H         1 UNK         0.3127 
    106 H106       29.7958   -0.1921   -6.0071 H         1 UNK         0.0770 
    107 H107       29.2211    0.1275   -3.6399 H         1 UNK         0.0814 
    108 H108       27.9538    1.2911   -4.0569 H         1 UNK         0.0814 
    109 H109       29.6484    1.6832   -4.3303 H         1 UNK         0.0814 
    110 H110       26.5998    1.3240   -6.4850 H         1 UNK         0.2983 
    111 H111       27.4683    3.5809   -7.9640 H         1 UNK         0.0947 
    112 H112       25.0810    3.6559   -8.7278 H         1 UNK         0.0806 
    113 H113       25.1925    3.3806   -6.9962 H         1 UNK         0.0806 
    114 H114       24.8166    2.0417   -8.0787 H         1 UNK         0.0806 
    115 H115       26.7494    0.2467   -9.0272 H         1 UNK         0.3000 
    116 H116       27.0871    0.8210  -11.8569 H         1 UNK         0.0850 
    117 H117       26.9702   -1.6626  -12.0760 H         1 UNK         0.0810 
    118 H118       25.6460   -1.0453  -11.0993 H         1 UNK         0.0810 
    119 H119       27.0161   -1.8350  -10.3259 H         1 UNK         0.0810 
    120 H120       29.1065   -0.6896   -9.2932 H         1 UNK         0.3040 
    121 H121       31.2930   -1.3067  -11.0189 H         1 UNK         0.0766 
    122 H122       32.4525   -1.8533   -8.8633 H         1 UNK         0.0812 
    123 H123       30.8418   -2.5508   -8.9410 H         1 UNK         0.0812 
    124 H124       31.1332   -1.1046   -7.9709 H         1 UNK         0.0812 
    125 H125       30.6782    1.4916   -8.8987 H         1 UNK         0.3205 
    126 H126       31.6730    3.4063   -8.4785 H         1 UNK         0.0754 
    127 H127       33.1091    4.5432  -10.1396 H         1 UNK         0.0769 
    128 H128       31.7039    3.8419  -10.9277 H         1 UNK         0.0769 
    129 H129       33.2788    3.0644  -11.0700 H         1 UNK         0.0769 
    130 H130       32.3866    1.9344   -6.7171 H         1 UNK         0.2981 
    131 H131       34.8529    0.6782   -6.6027 H         1 UNK         0.0541 
    132 H132       34.4124    4.1714   -6.1997 H         1 UNK         0.3459 
    133 H133       36.0376    4.4645   -5.6328 H         1 UNK         0.3459 
    134 H134       34.5035    0.4668   -4.1800 H         1 UNK         0.0612 
    135 H135       33.3516    1.7747   -4.1791 H         1 UNK         0.0612 
    136 H136       33.8209   -2.1193   -5.1688 H         1 UNK         0.0624 
    137 H137       33.5258   -1.6426   -3.5098 H         1 UNK         0.0624 
@<TRIPOS>BOND
     1    1    2 1    
     2    1   72 1    
     3    1   73 1    
     4    1   74 1    
     5    2    3 2    
     6    2    4 am   BACKBONE|DICT|INTERRES
     7    4    5 1    
     8    4   75 1    
     9    5    6 1    
    10    5   35 1    
    11    5   76 1    
    12    6    7 1    
    13    6   77 1    
    14    6   78 1    
    15    7    8 1    
    16    8    9 1    
    17    8   79 1    
    18    8   80 1    
    19    9   10 ar   
    20    9   14 ar   
    21   10   11 ar   
    22   10   81 1    
    23   11   12 ar   
    24   11   71 1    
    25   12   13 ar   
    26   12   82 1    
    27   13   14 ar   
    28   13   15 1    
    29   14   83 1    
    30   15   16 1    
    31   15   84 1    
    32   15   85 1    
    33   16   17 1    
    34   17   18 1    
    35   17   86 1    
    36   17   87 1    
    37   18   19 1    
    38   18   37 1    
    39   18   88 1    
    40   19   20 am   BACKBONE|DICT|INTERRES
    41   19   89 1    
    42   20   21 2    
    43   20   22 1    
    44   22   23 1    
    45   22   24 1    
    46   22   90 1    
    47   23   91 1    
    48   23   92 1    
    49   23   93 1    
    50   24   25 am   BACKBONE|DICT|INTERRES
    51   24   94 1    
    52   25   26 2    
    53   25   27 1    
    54   27   28 1    
    55   27   29 1    
    56   27   95 1    
    57   28   96 1    
    58   28   97 1    
    59   28   98 1    
    60   29   30 am   BACKBONE|DICT|INTERRES
    61   29   99 1    
    62   30   31 2    
    63   30   32 1    
    64   32   33 1    
    65   32   34 1    
    66   32  100 1    
    67   33  101 1    
    68   33  102 1    
    69   33  103 1    
    70   34   35 am   BACKBONE|DICT|INTERRES
    71   34  104 1    
    72   35   36 2    
    73   37   38 2    
    74   37   39 am   BACKBONE|DICT|INTERRES
    75   39   40 1    
    76   39  105 1    
    77   40   41 1    
    78   40   42 1    
    79   40  106 1    
    80   41  107 1    
    81   41  108 1    
    82   41  109 1    
    83   42   43 2    
    84   42   44 am   BACKBONE|DICT|INTERRES
    85   44   45 1    
    86   44  110 1    
    87   45   46 1    
    88   45   47 1    
    89   45  111 1    
    90   46  112 1    
    91   46  113 1    
    92   46  114 1    
    93   47   48 2    
    94   47   49 am   BACKBONE|DICT|INTERRES
    95   49   50 1    
    96   49  115 1    
    97   50   51 1    
    98   50   52 1    
    99   50  116 1    
   100   51  117 1    
   101   51  118 1    
   102   51  119 1    
   103   52   53 2    
   104   52   54 am   BACKBONE|DICT|INTERRES
   105   54   55 1    
   106   54  120 1    
   107   55   56 1    
   108   55   57 1    
   109   55  121 1    
   110   56  122 1    
   111   56  123 1    
   112   56  124 1    
   113   57   58 2    
   114   57   59 am   BACKBONE|DICT|INTERRES
   115   59   60 1    
   116   59  125 1    
   117   60   61 1    
   118   60   62 1    
   119   60  126 1    
   120   61  127 1    
   121   61  128 1    
   122   61  129 1    
   123   62   63 2    
   124   62   64 am   BACKBONE|DICT|INTERRES
   125   64   65 1    
   126   64  130 1    
   127   65   66 1    
   128   65   69 1    
   129   65  131 1    
   130   66   67 am   BACKBONE|DICT|INTERRES
   131   66   68 2    
   132   67  132 1    
   133   67  133 1    
   134   69   70 1    
   135   69  134 1    
   136   69  135 1    
   137   70   71 1    
   138   71  136 1    
   139   71  137 1    
@<TRIPOS>SUBSTRUCTURE
     1 UNK         1 GROUP             0       ****    0 ROOT    
