@<TRIPOS>MOLECULE
3R137
137   139    1
SMALL
USER_CHARGES


@<TRIPOS>ATOM
      1 CA         23.9446   -5.6213   -3.4601 C.3       0 UNK        -0.2020 
      2 C          24.4746   -4.6959   -2.3760 C.2       0 UNK         0.4855 
      3 O          23.7180   -3.8922   -1.8298 O.2       0 UNK        -0.5197 
      4 N          25.7740   -4.7906   -2.0696 N.am      1 UNK        -0.4892 
      5 CA         26.4950   -3.9532   -1.1049 C.3       1 UNK         0.0835 
      6 C6         27.9445   -4.4494   -0.8502 C.3       12 UNK        -0.0855 
      7 S7         28.8238   -5.0654   -2.3328 S.3       12 UNK        -0.2931 
      8 C8         30.5080   -4.4306   -2.0742 C.3       12 UNK         0.0378 
      9 C9         30.7572   -3.1497   -2.8549 C.ar      12 UNK        -0.0802 
     10 C10        31.0555   -3.2217   -4.2181 C.ar      12 UNK        -0.0944 
     11 C11        31.3607   -2.0664   -4.9402 C.ar      12 UNK        -0.0787 
     12 C12        31.3731   -0.8316   -4.2877 C.ar      12 UNK        -0.0862 
     13 C13        31.0312   -0.7367   -2.9347 C.ar      12 UNK        -0.0733 
     14 C14        30.7273   -1.9028   -2.2215 C.ar      12 UNK        -0.0832 
     15 C15        31.0045    0.6193   -2.2345 C.3       12 UNK         0.0240 
     16 S16        30.0548    1.8924   -3.1393 S.3       12 UNK        -0.2522 
     17 C17        28.4201    1.1018   -3.3095 C.3       12 UNK        -0.0967 
     18 CA         28.0918    0.7709   -4.7902 C.3       5 UNK         0.0660 
     19 N          27.3554   -0.4882   -4.9181 N.am      5 UNK        -0.4015 
     20 C          27.0247   -1.0800   -6.0752 C.2       4 UNK         0.4946 
     21 O          27.3539   -0.6649   -7.1865 O.2       4 UNK        -0.5353 
     22 CA         26.1045   -2.3058   -5.9727 C.3       4 UNK         0.0277 
     23 CB         26.9009   -3.5731   -5.6193 C.3       4 UNK        -0.1981 
     24 N          25.0365   -2.0831   -4.9939 N.am      4 UNK        -0.4209 
     25 C          24.0168   -1.2305   -5.1822 C.2       3 UNK         0.4942 
     26 O          23.8245   -0.6200   -6.2325 O.2       3 UNK        -0.5208 
     27 CA         23.0800   -0.9749   -3.9900 C.3       3 UNK         0.0250 
     28 CB         21.9169   -1.9788   -3.9810 C.3       3 UNK        -0.1990 
     29 N          23.7860   -1.0030   -2.7057 N.am      3 UNK        -0.4232 
     30 C          24.6438   -0.0477   -2.3125 C.2       2 UNK         0.4993 
     31 O          24.8869    0.9594   -2.9746 O.2       2 UNK        -0.5286 
     32 CA         25.4033   -0.2630   -0.9917 C.3       2 UNK         0.0209 
     33 CB         24.6202    0.3417    0.1838 C.3       2 UNK        -0.1931 
     34 N          25.7019   -1.6692   -0.7106 N.am      2 UNK        -0.4546 
     35 C          26.4316   -2.4656   -1.5038 C.2       1 UNK         0.5154 
     36 O          26.9726   -2.0773   -2.5408 O.2       1 UNK        -0.5181 
     37 C          27.3748    1.9426   -5.4969 C.2       5 UNK         0.5014 
     38 O          28.0137    2.6935   -6.2323 O.2       5 UNK        -0.5248 
     39 N          26.0546    2.0617   -5.2932 N.am      6 UNK        -0.4434 
     40 CA         25.1994    3.0457   -5.9606 C.3       6 UNK         0.0363 
     41 CB         23.8016    3.0330   -5.3219 C.3       6 UNK        -0.1936 
     42 C          25.0983    2.8344   -7.4818 C.2       6 UNK         0.5081 
     43 O          25.0462    3.8196   -8.2189 O.2       6 UNK        -0.5248 
     44 N          25.0661    1.5694   -7.9255 N.am      7 UNK        -0.4718 
     45 CA         25.0164    1.1920   -9.3388 C.3       7 UNK         0.0273 
     46 CB         24.6332   -0.2906   -9.4770 C.3       7 UNK        -0.1935 
     47 C          26.3270    1.4961  -10.0824 C.2       7 UNK         0.5018 
     48 O          26.2804    2.1322  -11.1367 O.2       7 UNK        -0.5186 
     49 N          27.4634    1.0476   -9.5326 N.am      8 UNK        -0.4240 
     50 CA         28.7902    1.2325  -10.1178 C.3       8 UNK         0.0235 
     51 CB         28.9860    0.2920  -11.3268 C.3       8 UNK        -0.2000 
     52 C          29.8540    0.9977   -9.0413 C.2       8 UNK         0.4941 
     53 O          30.2825   -0.1408   -8.8530 O.2       8 UNK        -0.5273 
     54 N          30.2663    2.0753   -8.3587 N.am      9 UNK        -0.4262 
     55 CA         31.2647    2.0523   -7.2825 C.3       9 UNK         0.0264 
     56 CB         31.3427    3.4347   -6.6132 C.3       9 UNK        -0.1955 
     57 C          32.6698    1.6149   -7.7298 C.2       9 UNK         0.5031 
     58 O          33.3976    1.0164   -6.9370 O.2       9 UNK        -0.5390 
     59 N          33.0320    1.9130   -8.9842 N.am      10 UNK        -0.4204 
     60 CA         34.3354    1.6229   -9.5879 C.3       10 UNK         0.0237 
     61 CB         34.5812    2.6227  -10.7345 C.3       10 UNK        -0.1985 
     62 C          34.4750    0.1537  -10.0398 C.2       10 UNK         0.4970 
     63 O          34.8763   -0.1011  -11.1770 O.2       10 UNK        -0.4914 
     64 N          34.1435   -0.7881   -9.1492 N.am      11 UNK        -0.4285 
     65 CA         34.2770   -2.2365   -9.3702 C.3       11 UNK         0.1007 
     66 C          35.7203   -2.7945   -9.1926 C.2       11 UNK         0.5703 
     67 N          36.6816   -2.0181   -8.7053 N.am      11 UNK        -0.7361 
     68 O          35.9770   -3.9501   -9.5229 O.2       11 UNK        -0.4986 
     69 C69        33.2224   -3.0439   -8.5693 C.3       12 UNK        -0.0947 
     70 S70        33.3095   -2.8175   -6.7583 S.3       12 UNK        -0.2240 
     71 C71        31.6498   -2.1553   -6.4285 C.3       12 UNK         0.0194 
     72 H72        24.6821   -6.3684   -3.7528 H         1 UNK         0.0906 
     73 H73        23.0567   -6.1441   -3.1058 H         1 UNK         0.0906 
     74 H74        23.6728   -5.0476   -4.3456 H         1 UNK         0.0906 
     75 H75        26.3638   -5.4406   -2.5718 H         1 UNK         0.3140 
     76 H76        25.9622   -4.0539   -0.1565 H         1 UNK         0.1085 
     77 H77        27.9125   -5.2789   -0.1421 H         1 UNK         0.0836 
     78 H78        28.5352   -3.6756   -0.3558 H         1 UNK         0.0836 
     79 H79        31.2164   -5.1917   -2.4051 H         1 UNK         0.0731 
     80 H80        30.7058   -4.2868   -1.0110 H         1 UNK         0.0731 
     81 H81        31.0609   -4.1815   -4.7167 H         1 UNK         0.1312 
     82 H82        31.6307    0.0625   -4.8361 H         1 UNK         0.1406 
     83 H83        30.4816   -1.8437   -1.1700 H         1 UNK         0.1631 
     84 H84        32.0298    0.9698   -2.1102 H         1 UNK         0.0717 
     85 H85        30.5864    0.5271   -1.2309 H         1 UNK         0.0717 
     86 H86        28.4183    0.1938   -2.7051 H         1 UNK         0.0934 
     87 H87        27.6630    1.7448   -2.8559 H         1 UNK         0.0934 
     88 H88        29.0261    0.6024   -5.3281 H         1 UNK         0.0739 
     89 H89        27.0979   -0.9552   -4.0519 H         1 UNK         0.3093 
     90 H90        25.6425   -2.4608   -6.9501 H         1 UNK         0.0818 
     91 H91        27.6580   -3.7758   -6.3778 H         1 UNK         0.0819 
     92 H92        27.4218   -3.4812   -4.6662 H         1 UNK         0.0819 
     93 H93        26.2539   -4.4484   -5.5653 H         1 UNK         0.0819 
     94 H94        25.1647   -2.4913   -4.0791 H         1 UNK         0.3041 
     95 H95        22.6544    0.0230   -4.1155 H         1 UNK         0.0784 
     96 H96        21.3385   -1.9087   -4.9032 H         1 UNK         0.0793 
     97 H97        22.2647   -3.0077   -3.8959 H         1 UNK         0.0793 
     98 H98        21.2327   -1.7866   -3.1544 H         1 UNK         0.0793 
     99 H99        23.6683   -1.8336   -2.1334 H         1 UNK         0.3024 
    100 H100       26.3552    0.2654   -1.0767 H         1 UNK         0.1171 
    101 H101       25.1879    0.2814    1.1126 H         1 UNK         0.0786 
    102 H102       24.4045    1.3965    0.0065 H         1 UNK         0.0786 
    103 H103       23.6664   -0.1645    0.3380 H         1 UNK         0.0786 
    104 H104       25.2565   -2.0689    0.1033 H         1 UNK         0.2977 
    105 H105       25.6074    1.4684   -4.5965 H         1 UNK         0.3127 
    106 H106       25.6394    4.0311   -5.7941 H         1 UNK         0.0770 
    107 H107       23.3151    2.0642   -5.4387 H         1 UNK         0.0814 
    108 H108       23.1550    3.7809   -5.7826 H         1 UNK         0.0814 
    109 H109       23.8496    3.2577   -4.2563 H         1 UNK         0.0814 
    110 H110       25.0565    0.8136   -7.2498 H         1 UNK         0.2983 
    111 H111       24.2283    1.7822   -9.8120 H         1 UNK         0.0947 
    112 H112       25.3599   -0.9457   -8.9966 H         1 UNK         0.0806 
    113 H113       24.5753   -0.5822  -10.5265 H         1 UNK         0.0806 
    114 H114       23.6587   -0.4903   -9.0311 H         1 UNK         0.0806 
    115 H115       27.4269    0.5219   -8.6584 H         1 UNK         0.3000 
    116 H116       28.8835    2.2631  -10.4672 H         1 UNK         0.0850 
    117 H117       30.0015    0.3655  -11.7181 H         1 UNK         0.0810 
    118 H118       28.3084    0.5403  -12.1435 H         1 UNK         0.0810 
    119 H119       28.8147   -0.7507  -11.0564 H         1 UNK         0.0810 
    120 H120       29.8180    2.9631   -8.5361 H         1 UNK         0.3040 
    121 H121       30.9177    1.3342   -6.5402 H         1 UNK         0.0766 
    122 H122       30.3851    3.7313   -6.1876 H         1 UNK         0.0812 
    123 H123       31.6523    4.2089   -7.3161 H         1 UNK         0.0812 
    124 H124       32.0637    3.4295   -5.7943 H         1 UNK         0.0812 
    125 H125       32.3538    2.3729   -9.5736 H         1 UNK         0.3205 
    126 H126       35.1087    1.7925   -8.8356 H         1 UNK         0.0754 
    127 H127       35.5726    2.4864  -11.1689 H         1 UNK         0.0769 
    128 H128       34.5266    3.6529  -10.3816 H         1 UNK         0.0769 
    129 H129       33.8530    2.5034  -11.5379 H         1 UNK         0.0769 
    130 H130       33.8398   -0.4957   -8.2261 H         1 UNK         0.2981 
    131 H131       34.0456   -2.4172  -10.4217 H         1 UNK         0.0541 
    132 H132       37.6123   -2.3906   -8.6029 H         1 UNK         0.3459 
    133 H133       36.4812   -1.0725   -8.4236 H         1 UNK         0.3459 
    134 H134       32.2272   -2.7644   -8.9190 H         1 UNK         0.0612 
    135 H135       33.3122   -4.1104   -8.7831 H         1 UNK         0.0612 
    136 H136       31.5664   -1.1725   -6.8898 H         1 UNK         0.0624 
    137 H137       30.8979   -2.7877   -6.9031 H         1 UNK         0.0624 
@<TRIPOS>BOND
     1    1    2 1    
     2    1   72 1    
     3    1   73 1    
     4    1   74 1    
     5    2    3 2    
     6    2    4 am   BACKBONE|DICT|INTERRES
     7    4    5 1    
     8    4   75 1    
     9    5    6 1    
    10    5   35 1    
    11    5   76 1    
    12    6    7 1    
    13    6   77 1    
    14    6   78 1    
    15    7    8 1    
    16    8    9 1    
    17    8   79 1    
    18    8   80 1    
    19    9   10 ar   
    20    9   14 ar   
    21   10   11 ar   
    22   10   81 1    
    23   11   12 ar   
    24   11   71 1    
    25   12   13 ar   
    26   12   82 1    
    27   13   14 ar   
    28   13   15 1    
    29   14   83 1    
    30   15   16 1    
    31   15   84 1    
    32   15   85 1    
    33   16   17 1    
    34   17   18 1    
    35   17   86 1    
    36   17   87 1    
    37   18   19 1    
    38   18   37 1    
    39   18   88 1    
    40   19   20 am   BACKBONE|DICT|INTERRES
    41   19   89 1    
    42   20   21 2    
    43   20   22 1    
    44   22   23 1    
    45   22   24 1    
    46   22   90 1    
    47   23   91 1    
    48   23   92 1    
    49   23   93 1    
    50   24   25 am   BACKBONE|DICT|INTERRES
    51   24   94 1    
    52   25   26 2    
    53   25   27 1    
    54   27   28 1    
    55   27   29 1    
    56   27   95 1    
    57   28   96 1    
    58   28   97 1    
    59   28   98 1    
    60   29   30 am   BACKBONE|DICT|INTERRES
    61   29   99 1    
    62   30   31 2    
    63   30   32 1    
    64   32   33 1    
    65   32   34 1    
    66   32  100 1    
    67   33  101 1    
    68   33  102 1    
    69   33  103 1    
    70   34   35 am   BACKBONE|DICT|INTERRES
    71   34  104 1    
    72   35   36 2    
    73   37   38 2    
    74   37   39 am   BACKBONE|DICT|INTERRES
    75   39   40 1    
    76   39  105 1    
    77   40   41 1    
    78   40   42 1    
    79   40  106 1    
    80   41  107 1    
    81   41  108 1    
    82   41  109 1    
    83   42   43 2    
    84   42   44 am   BACKBONE|DICT|INTERRES
    85   44   45 1    
    86   44  110 1    
    87   45   46 1    
    88   45   47 1    
    89   45  111 1    
    90   46  112 1    
    91   46  113 1    
    92   46  114 1    
    93   47   48 2    
    94   47   49 am   BACKBONE|DICT|INTERRES
    95   49   50 1    
    96   49  115 1    
    97   50   51 1    
    98   50   52 1    
    99   50  116 1    
   100   51  117 1    
   101   51  118 1    
   102   51  119 1    
   103   52   53 2    
   104   52   54 am   BACKBONE|DICT|INTERRES
   105   54   55 1    
   106   54  120 1    
   107   55   56 1    
   108   55   57 1    
   109   55  121 1    
   110   56  122 1    
   111   56  123 1    
   112   56  124 1    
   113   57   58 2    
   114   57   59 am   BACKBONE|DICT|INTERRES
   115   59   60 1    
   116   59  125 1    
   117   60   61 1    
   118   60   62 1    
   119   60  126 1    
   120   61  127 1    
   121   61  128 1    
   122   61  129 1    
   123   62   63 2    
   124   62   64 am   BACKBONE|DICT|INTERRES
   125   64   65 1    
   126   64  130 1    
   127   65   66 1    
   128   65   69 1    
   129   65  131 1    
   130   66   67 am   BACKBONE|DICT|INTERRES
   131   66   68 2    
   132   67  132 1    
   133   67  133 1    
   134   69   70 1    
   135   69  134 1    
   136   69  135 1    
   137   70   71 1    
   138   71  136 1    
   139   71  137 1    
@<TRIPOS>SUBSTRUCTURE
     1 UNK         1 GROUP             0       ****    0 ROOT    
