@<TRIPOS>MOLECULE
3R137
137   139    1
SMALL
USER_CHARGES


@<TRIPOS>ATOM
      1 CA         24.3265   -0.1236   -7.5722 C.3       0 UNK        -0.2020 
      2 C          24.0710   -1.5330   -7.0629 C.2       0 UNK         0.4855 
      3 O          23.2132   -2.2325   -7.6037 O.2       0 UNK        -0.5197 
      4 N          24.8034   -1.9466   -6.0248 N.am      1 UNK        -0.4892 
      5 CA         24.6147   -3.2170   -5.3151 C.3       1 UNK         0.0835 
      6 C6         25.9797   -3.8536   -4.9500 C.3       12 UNK        -0.0855 
      7 S7         26.8078   -4.4942   -6.4424 S.3       12 UNK        -0.2931 
      8 C8         28.3054   -5.2461   -5.7335 C.3       12 UNK         0.0378 
      9 C9         29.2983   -4.1938   -5.2635 C.ar      12 UNK        -0.0802 
     10 C10        29.9407   -3.3768   -6.1984 C.ar      12 UNK        -0.0944 
     11 C11        30.8538   -2.4026   -5.7869 C.ar      12 UNK        -0.0787 
     12 C12        31.1457   -2.2755   -4.4260 C.ar      12 UNK        -0.0862 
     13 C13        30.5032   -3.0781   -3.4779 C.ar      12 UNK        -0.0733 
     14 C14        29.5786   -4.0368   -3.9026 C.ar      12 UNK        -0.0832 
     15 C15        30.7954   -2.8954   -1.9948 C.3       12 UNK         0.0240 
     16 S16        29.6260   -1.7361   -1.2113 S.3       12 UNK        -0.2522 
     17 C17        30.0520   -0.1721   -2.0509 C.3       12 UNK        -0.0967 
     18 CA         29.0542    0.1423   -3.1969 C.3       5 UNK         0.0660 
     19 N          27.7454    0.5173   -2.6595 N.am      5 UNK        -0.4015 
     20 C          26.5706    0.3794   -3.2821 C.2       4 UNK         0.4946 
     21 O          26.4416   -0.0729   -4.4228 O.2       4 UNK        -0.5353 
     22 CA         25.3346    0.7472   -2.4492 C.3       4 UNK         0.0277 
     23 CB         24.1747    1.2705   -3.3169 C.3       4 UNK        -0.1981 
     24 N          24.9280   -0.4464   -1.7032 N.am      4 UNK        -0.4209 
     25 C          25.4715   -0.8055   -0.5282 C.2       3 UNK         0.4942 
     26 O          26.2186   -0.0618    0.1106 O.2       3 UNK        -0.5208 
     27 CA         25.2257   -2.2282    0.0169 C.3       3 UNK         0.0250 
     28 CB         24.7249   -2.2144    1.4774 C.3       3 UNK        -0.1990 
     29 N          24.4102   -3.0967   -0.8429 N.am      3 UNK        -0.4232 
     30 C          23.0844   -3.0675   -1.0436 C.2       2 UNK         0.4993 
     31 O          22.3117   -2.2996   -0.4682 O.2       2 UNK        -0.5286 
     32 CA         22.5573   -4.0409   -2.1230 C.3       2 UNK         0.0209 
     33 CB         21.0772   -3.7865   -2.4820 C.3       2 UNK        -0.1931 
     34 N          23.3819   -4.0516   -3.3468 N.am      2 UNK        -0.4546 
     35 C          23.7339   -2.9766   -4.0716 C.2       1 UNK         0.5154 
     36 O          23.3964   -1.8316   -3.7679 O.2       1 UNK        -0.5181 
     37 C          29.5824    1.2059   -4.1823 C.2       5 UNK         0.5014 
     38 O          30.6224    1.8199   -3.9369 O.2       5 UNK        -0.5248 
     39 N          28.8461    1.4077   -5.2773 N.am      6 UNK        -0.4434 
     40 CA         29.1190    2.3361   -6.3695 C.3       6 UNK         0.0363 
     41 CB         28.8831    3.7888   -5.9064 C.3       6 UNK        -0.1936 
     42 C          28.1929    1.9683   -7.5363 C.2       6 UNK         0.5081 
     43 O          27.3611    1.0696   -7.3925 O.2       6 UNK        -0.5248 
     44 N          28.3441    2.6642   -8.6713 N.am      7 UNK        -0.4718 
     45 CA         27.5375    2.6003   -9.9044 C.3       7 UNK         0.0273 
     46 CB         26.0689    2.9839   -9.6355 C.3       7 UNK        -0.1935 
     47 C          27.6283    1.2765  -10.6879 C.2       7 UNK         0.5018 
     48 O          27.7144    1.3158  -11.9156 O.2       7 UNK        -0.5186 
     49 N          27.6400    0.1395   -9.9808 N.am      8 UNK        -0.4240 
     50 CA         27.9001   -1.2004  -10.5159 C.3       8 UNK         0.0235 
     51 CB         27.6331   -2.2414   -9.4163 C.3       8 UNK        -0.2000 
     52 C          29.3309   -1.3410  -11.0687 C.2       8 UNK         0.4941 
     53 O          29.5353   -2.0326  -12.0669 O.2       8 UNK        -0.5273 
     54 N          30.2751   -0.6437  -10.4293 N.am      9 UNK        -0.4262 
     55 CA         31.6490   -0.4083  -10.8509 C.3       9 UNK         0.0264 
     56 CB         32.5138   -1.6711  -10.6701 C.3       9 UNK        -0.1955 
     57 C          32.1708    0.7705  -10.0189 C.2       9 UNK         0.5031 
     58 O          31.5531    1.1311   -9.0094 O.2       9 UNK        -0.5390 
     59 N          33.2994    1.3513  -10.4410 N.am      10 UNK        -0.4204 
     60 CA         33.9615    2.4823   -9.7828 C.3       10 UNK         0.0237 
     61 CB         34.8383    3.2162  -10.8156 C.3       10 UNK        -0.1985 
     62 C          34.7543    2.0412   -8.5352 C.2       10 UNK         0.4970 
     63 O          35.9744    2.2089   -8.4866 O.2       10 UNK        -0.4914 
     64 N          34.0461    1.4642   -7.5585 N.am      11 UNK        -0.4285 
     65 CA         34.6055    0.9478   -6.2980 C.3       11 UNK         0.1007 
     66 C          35.0052    2.0431   -5.2661 C.2       11 UNK         0.5703 
     67 N          34.6442    3.3068   -5.4577 N.am      11 UNK        -0.7361 
     68 O          35.6679    1.7402   -4.2766 O.2       11 UNK        -0.4986 
     69 C69        33.6836   -0.1171   -5.6479 C.3       12 UNK        -0.0947 
     70 S70        33.3053   -1.5052   -6.7743 S.3       12 UNK        -0.2240 
     71 C71        31.4836   -1.4702   -6.8141 C.3       12 UNK         0.0194 
     72 H72        24.9382   -0.1553   -8.4732 H         1 UNK         0.0906 
     73 H73        23.3862    0.3719   -7.8114 H         1 UNK         0.0906 
     74 H74        24.8434    0.4811   -6.8268 H         1 UNK         0.0906 
     75 H75        25.4421   -1.2937   -5.5742 H         1 UNK         0.3140 
     76 H76        24.0652   -3.9180   -5.9475 H         1 UNK         0.1085 
     77 H77        25.8639   -4.6889   -4.2575 H         1 UNK         0.0836 
     78 H78        26.6289   -3.1270   -4.4562 H         1 UNK         0.0836 
     79 H79        28.7807   -5.8664   -6.4946 H         1 UNK         0.0731 
     80 H80        28.0272   -5.9190   -4.9208 H         1 UNK         0.0731 
     81 H81        29.7108   -3.4935   -7.2485 H         1 UNK         0.1312 
     82 H82        31.8591   -1.5330   -4.1020 H         1 UNK         0.1406 
     83 H83        29.0769   -4.6569   -3.1720 H         1 UNK         0.1631 
     84 H84        31.8170   -2.5419   -1.8463 H         1 UNK         0.0717 
     85 H85        30.7316   -3.8576   -1.4845 H         1 UNK         0.0717 
     86 H86        30.0568    0.6331   -1.3141 H         1 UNK         0.0934 
     87 H87        31.0791   -0.2354   -2.4116 H         1 UNK         0.0934 
     88 H88        28.9192   -0.7659   -3.7875 H         1 UNK         0.0739 
     89 H89        27.7409    0.8497   -1.7051 H         1 UNK         0.3093 
     90 H90        25.5999    1.5466   -1.7536 H         1 UNK         0.0818 
     91 H91        23.9198    0.5928   -4.1307 H         1 UNK         0.0819 
     92 H92        23.2756    1.4325   -2.7225 H         1 UNK         0.0819 
     93 H93        24.4399    2.2246   -3.7734 H         1 UNK         0.0819 
     94 H94        24.3295   -1.0954   -2.2067 H         1 UNK         0.3041 
     95 H95        26.2114   -2.6965    0.0287 H         1 UNK         0.0784 
     96 H96        25.4487   -1.7265    2.1315 H         1 UNK         0.0793 
     97 H97        23.7849   -1.6724    1.5825 H         1 UNK         0.0793 
     98 H98        24.5770   -3.2250    1.8579 H         1 UNK         0.0793 
     99 H99        24.9377   -3.7640   -1.3888 H         1 UNK         0.3024 
    100 H100       22.6227   -5.0391   -1.6862 H         1 UNK         0.1171 
    101 H101       20.7166   -4.5087   -3.2144 H         1 UNK         0.0786 
    102 H102       20.4392   -3.8744   -1.6015 H         1 UNK         0.0786 
    103 H103       20.9272   -2.7879   -2.8942 H         1 UNK         0.0786 
    104 H104       23.6933   -4.9631   -3.6547 H         1 UNK         0.2977 
    105 H105       28.0003    0.8541   -5.4131 H         1 UNK         0.3127 
    106 H106       30.1533    2.2076   -6.6953 H         1 UNK         0.0770 
    107 H107       27.8526    3.9428   -5.5838 H         1 UNK         0.0814 
    108 H108       29.0849    4.5009   -6.7071 H         1 UNK         0.0814 
    109 H109       29.5356    4.0566   -5.0755 H         1 UNK         0.0814 
    110 H110       29.0979    3.3375   -8.6994 H         1 UNK         0.2983 
    111 H111       27.9537    3.3667  -10.5607 H         1 UNK         0.0947 
    112 H112       25.4992    3.0185  -10.5651 H         1 UNK         0.0806 
    113 H113       25.9954    3.9688   -9.1744 H         1 UNK         0.0806 
    114 H114       25.5716    2.2702   -8.9789 H         1 UNK         0.0806 
    115 H115       27.5289    0.2321   -8.9720 H         1 UNK         0.3000 
    116 H116       27.2059   -1.3774  -11.3401 H         1 UNK         0.0850 
    117 H117       27.8495   -3.2511   -9.7678 H         1 UNK         0.0810 
    118 H118       26.5899   -2.2269   -9.1000 H         1 UNK         0.0810 
    119 H119       28.2476   -2.0623   -8.5334 H         1 UNK         0.0810 
    120 H120       30.0131   -0.0783   -9.6297 H         1 UNK         0.3040 
    121 H121       31.6438   -0.1127  -11.9020 H         1 UNK         0.0766 
    122 H122       33.5429   -1.4922  -10.9831 H         1 UNK         0.0812 
    123 H123       32.1390   -2.5005  -11.2696 H         1 UNK         0.0812 
    124 H124       32.5452   -2.0011   -9.6334 H         1 UNK         0.0812 
    125 H125       33.7620    0.9754  -11.2567 H         1 UNK         0.3205 
    126 H126       33.1973    3.1852   -9.4435 H         1 UNK         0.0754 
    127 H127       35.6258    2.5725  -11.2099 H         1 UNK         0.0769 
    128 H128       35.3210    4.0874  -10.3704 H         1 UNK         0.0769 
    129 H129       34.2445    3.5739  -11.6571 H         1 UNK         0.0769 
    130 H130       33.0515    1.3301   -7.7079 H         1 UNK         0.2981 
    131 H131       35.5385    0.4412   -6.5526 H         1 UNK         0.0541 
    132 H132       34.0990    3.5659   -6.2633 H         1 UNK         0.3459 
    133 H133       34.9147    4.0048   -4.7832 H         1 UNK         0.3459 
    134 H134       34.1577   -0.5409   -4.7608 H         1 UNK         0.0612 
    135 H135       32.7602    0.3511   -5.3030 H         1 UNK         0.0612 
    136 H136       31.1152   -0.4550   -6.6623 H         1 UNK         0.0624 
    137 H137       31.1617   -1.7522   -7.8162 H         1 UNK         0.0624 
@<TRIPOS>BOND
     1    1    2 1    
     2    1   72 1    
     3    1   73 1    
     4    1   74 1    
     5    2    3 2    
     6    2    4 am   BACKBONE|DICT|INTERRES
     7    4    5 1    
     8    4   75 1    
     9    5    6 1    
    10    5   35 1    
    11    5   76 1    
    12    6    7 1    
    13    6   77 1    
    14    6   78 1    
    15    7    8 1    
    16    8    9 1    
    17    8   79 1    
    18    8   80 1    
    19    9   10 ar   
    20    9   14 ar   
    21   10   11 ar   
    22   10   81 1    
    23   11   12 ar   
    24   11   71 1    
    25   12   13 ar   
    26   12   82 1    
    27   13   14 ar   
    28   13   15 1    
    29   14   83 1    
    30   15   16 1    
    31   15   84 1    
    32   15   85 1    
    33   16   17 1    
    34   17   18 1    
    35   17   86 1    
    36   17   87 1    
    37   18   19 1    
    38   18   37 1    
    39   18   88 1    
    40   19   20 am   BACKBONE|DICT|INTERRES
    41   19   89 1    
    42   20   21 2    
    43   20   22 1    
    44   22   23 1    
    45   22   24 1    
    46   22   90 1    
    47   23   91 1    
    48   23   92 1    
    49   23   93 1    
    50   24   25 am   BACKBONE|DICT|INTERRES
    51   24   94 1    
    52   25   26 2    
    53   25   27 1    
    54   27   28 1    
    55   27   29 1    
    56   27   95 1    
    57   28   96 1    
    58   28   97 1    
    59   28   98 1    
    60   29   30 am   BACKBONE|DICT|INTERRES
    61   29   99 1    
    62   30   31 2    
    63   30   32 1    
    64   32   33 1    
    65   32   34 1    
    66   32  100 1    
    67   33  101 1    
    68   33  102 1    
    69   33  103 1    
    70   34   35 am   BACKBONE|DICT|INTERRES
    71   34  104 1    
    72   35   36 2    
    73   37   38 2    
    74   37   39 am   BACKBONE|DICT|INTERRES
    75   39   40 1    
    76   39  105 1    
    77   40   41 1    
    78   40   42 1    
    79   40  106 1    
    80   41  107 1    
    81   41  108 1    
    82   41  109 1    
    83   42   43 2    
    84   42   44 am   BACKBONE|DICT|INTERRES
    85   44   45 1    
    86   44  110 1    
    87   45   46 1    
    88   45   47 1    
    89   45  111 1    
    90   46  112 1    
    91   46  113 1    
    92   46  114 1    
    93   47   48 2    
    94   47   49 am   BACKBONE|DICT|INTERRES
    95   49   50 1    
    96   49  115 1    
    97   50   51 1    
    98   50   52 1    
    99   50  116 1    
   100   51  117 1    
   101   51  118 1    
   102   51  119 1    
   103   52   53 2    
   104   52   54 am   BACKBONE|DICT|INTERRES
   105   54   55 1    
   106   54  120 1    
   107   55   56 1    
   108   55   57 1    
   109   55  121 1    
   110   56  122 1    
   111   56  123 1    
   112   56  124 1    
   113   57   58 2    
   114   57   59 am   BACKBONE|DICT|INTERRES
   115   59   60 1    
   116   59  125 1    
   117   60   61 1    
   118   60   62 1    
   119   60  126 1    
   120   61  127 1    
   121   61  128 1    
   122   61  129 1    
   123   62   63 2    
   124   62   64 am   BACKBONE|DICT|INTERRES
   125   64   65 1    
   126   64  130 1    
   127   65   66 1    
   128   65   69 1    
   129   65  131 1    
   130   66   67 am   BACKBONE|DICT|INTERRES
   131   66   68 2    
   132   67  132 1    
   133   67  133 1    
   134   69   70 1    
   135   69  134 1    
   136   69  135 1    
   137   70   71 1    
   138   71  136 1    
   139   71  137 1    
@<TRIPOS>SUBSTRUCTURE
     1 UNK         1 GROUP             0       ****    0 ROOT    
