@<TRIPOS>MOLECULE
3R137
137   139    1
SMALL
USER_CHARGES


@<TRIPOS>ATOM
      1 CA         25.2278   -5.6397   -7.6453 C.3       0 UNK        -0.2020 
      2 C          25.8555   -5.9612   -6.2973 C.2       0 UNK         0.4855 
      3 O          25.3576   -6.8322   -5.5839 O.2       0 UNK        -0.5197 
      4 N          26.9462   -5.2690   -5.9435 N.am      1 UNK        -0.4892 
      5 CA         27.6802   -5.4458   -4.6827 C.3       1 UNK         0.0835 
      6 C6         29.1243   -4.8951   -4.8062 C.3       12 UNK        -0.0855 
      7 S7         30.2744   -5.6202   -3.5835 S.3       12 UNK        -0.2931 
      8 C8         31.6945   -4.4693   -3.6427 C.3       12 UNK         0.0378 
      9 C9         31.4854   -3.0756   -3.0393 C.ar      12 UNK        -0.0802 
     10 C10        32.5692   -2.1887   -3.0482 C.ar      12 UNK        -0.0944 
     11 C11        32.4367   -0.8866   -2.5572 C.ar      12 UNK        -0.0787 
     12 C12        31.2026   -0.4629   -2.0597 C.ar      12 UNK        -0.0862 
     13 C13        30.1103   -1.3328   -2.0397 C.ar      12 UNK        -0.0733 
     14 C14        30.2630   -2.6415   -2.5056 C.ar      12 UNK        -0.0832 
     15 C15        28.7585   -0.8540   -1.5304 C.3       12 UNK         0.0240 
     16 S16        27.5757   -0.5871   -2.8898 S.3       12 UNK        -0.2522 
     17 C17        28.3580    0.7795   -3.8119 C.3       12 UNK        -0.0967 
     18 CA         27.6120    1.0687   -5.1354 C.3       5 UNK         0.0660 
     19 N          26.2405    1.5493   -4.9067 N.am      5 UNK        -0.4015 
     20 C          25.3091    1.7833   -5.8410 C.2       4 UNK         0.4946 
     21 O          25.5242    1.6844   -7.0509 O.2       4 UNK        -0.5353 
     22 CA         23.9147    2.2041   -5.3414 C.3       4 UNK         0.0277 
     23 CB         22.9840    2.6237   -6.4950 C.3       4 UNK        -0.1981 
     24 N          23.2645    1.1409   -4.5731 N.am      4 UNK        -0.4209 
     25 C          23.5714    0.7870   -3.3186 C.2       3 UNK         0.4942 
     26 O          24.4573    1.3334   -2.6580 O.2       3 UNK        -0.5208 
     27 CA         22.7560   -0.3495   -2.6754 C.3       3 UNK         0.0250 
     28 CB         21.4962   -0.7677   -3.4709 C.3       3 UNK        -0.1990 
     29 N          23.5997   -1.5099   -2.3719 N.am      3 UNK        -0.4232 
     30 C          24.2559   -2.2850   -3.2478 C.2       2 UNK         0.4993 
     31 O          24.2256   -2.1368   -4.4720 O.2       2 UNK        -0.5286 
     32 CA         25.0459   -3.4533   -2.6471 C.3       2 UNK         0.0209 
     33 CB         24.0864   -4.5300   -2.0955 C.3       2 UNK        -0.1931 
     34 N          25.9107   -4.0304   -3.6750 N.am      2 UNK        -0.4546 
     35 C          26.9256   -4.8752   -3.4540 C.2       1 UNK         0.5154 
     36 O          27.2597   -5.2285   -2.3218 O.2       1 UNK        -0.5181 
     37 C          28.4638    1.9519   -6.0742 C.2       5 UNK         0.5014 
     38 O          29.4473    1.4542   -6.6210 O.2       5 UNK        -0.5248 
     39 N          28.0595    3.2062   -6.3197 N.am      6 UNK        -0.4434 
     40 CA         28.6162    4.0617   -7.3738 C.3       6 UNK         0.0363 
     41 CB         27.9666    5.4522   -7.2939 C.3       6 UNK        -0.1936 
     42 C          28.4570    3.4746   -8.7933 C.2       6 UNK         0.5081 
     43 O          29.2979    3.7488   -9.6492 O.2       6 UNK        -0.5248 
     44 N          27.4058    2.6704   -9.0078 N.am      7 UNK        -0.4718 
     45 CA         27.1495    1.9265  -10.2424 C.3       7 UNK         0.0273 
     46 CB         25.7700    2.3240  -10.7927 C.3       7 UNK        -0.1935 
     47 C          27.2120    0.4088  -10.0063 C.2       7 UNK         0.5018 
     48 O          27.7352   -0.3102  -10.8569 O.2       7 UNK        -0.5186 
     49 N          26.6887   -0.0570   -8.8622 N.am      8 UNK        -0.4240 
     50 CA         26.5875   -1.4735   -8.4905 C.3       8 UNK         0.0235 
     51 CB         25.4741   -1.6366   -7.4432 C.3       8 UNK        -0.2000 
     52 C          27.9021   -2.0997   -7.9888 C.2       8 UNK         0.4941 
     53 O          27.9237   -3.3046   -7.7327 O.2       8 UNK        -0.5273 
     54 N          28.9610   -1.2960   -7.8484 N.am      9 UNK        -0.4262 
     55 CA         30.3188   -1.7432   -7.5450 C.3       9 UNK         0.0264 
     56 CB         30.6420   -1.5410   -6.0532 C.3       9 UNK        -0.1955 
     57 C          31.3120   -0.9837   -8.4284 C.2       9 UNK         0.5031 
     58 O          32.1379   -1.6169   -9.0864 O.2       9 UNK        -0.5390 
     59 N          31.2094    0.3563   -8.4170 N.am      10 UNK        -0.4204 
     60 CA         32.0995    1.3230   -9.0730 C.3       10 UNK         0.0237 
     61 CB         31.9794    1.2337  -10.6090 C.3       10 UNK        -0.1985 
     62 C          33.5510    1.2134   -8.5613 C.2       10 UNK         0.4970 
     63 O          34.4978    1.3218   -9.3431 O.2       10 UNK        -0.4914 
     64 N          33.6851    0.9660   -7.2522 N.am      11 UNK        -0.4285 
     65 CA         34.9509    0.7789   -6.5365 C.3       11 UNK         0.1007 
     66 C          35.8263    2.0629   -6.4562 C.2       11 UNK         0.5703 
     67 N          37.1224    1.9106   -6.2180 N.am      11 UNK        -0.7361 
     68 O          35.3468    3.1888   -6.5834 O.2       11 UNK        -0.4986 
     69 C69        34.7044    0.1271   -5.1484 C.3       12 UNK        -0.0947 
     70 S70        33.6477    1.1178   -4.0362 S.3       12 UNK        -0.2240 
     71 C71        33.6209    0.0685   -2.5508 C.3       12 UNK         0.0194 
     72 H72        25.0663   -6.5559   -8.2126 H         1 UNK         0.0906 
     73 H73        24.2638   -5.1518   -7.5035 H         1 UNK         0.0906 
     74 H74        25.8592   -4.9831   -8.2432 H         1 UNK         0.0906 
     75 H75        27.3199   -4.5647   -6.5820 H         1 UNK         0.3140 
     76 H76        27.7540   -6.5228   -4.5146 H         1 UNK         0.1085 
     77 H77        29.5289   -5.1232   -5.7940 H         1 UNK         0.0836 
     78 H78        29.1196   -3.8097   -4.7346 H         1 UNK         0.0836 
     79 H79        32.5257   -4.9453   -3.1206 H         1 UNK         0.0731 
     80 H80        32.0080   -4.3632   -4.6823 H         1 UNK         0.0731 
     81 H81        33.5211   -2.5110   -3.4480 H         1 UNK         0.1312 
     82 H82        31.0920    0.5495   -1.6957 H         1 UNK         0.1406 
     83 H83        29.4084   -3.3011   -2.4695 H         1 UNK         0.1631 
     84 H84        28.8611    0.0684   -0.9567 H         1 UNK         0.0717 
     85 H85        28.3464   -1.5968   -0.8459 H         1 UNK         0.0717 
     86 H86        29.3932    0.4993   -4.0145 H         1 UNK         0.0934 
     87 H87        28.3954    1.6687   -3.1801 H         1 UNK         0.0934 
     88 H88        27.5139    0.1179   -5.6612 H         1 UNK         0.0739 
     89 H89        25.9371    1.5873   -3.9372 H         1 UNK         0.3093 
     90 H90        24.0506    3.0715   -4.6918 H         1 UNK         0.0818 
     91 H91        22.0232    2.9788   -6.1221 H         1 UNK         0.0819 
     92 H92        23.4238    3.4355   -7.0763 H         1 UNK         0.0819 
     93 H93        22.7941    1.7982   -7.1824 H         1 UNK         0.0819 
     94 H94        22.5585    0.6036   -5.0552 H         1 UNK         0.3041 
     95 H95        22.4150    0.0387   -1.7144 H         1 UNK         0.0784 
     96 H96        20.8318    0.0823   -3.6323 H         1 UNK         0.0793 
     97 H97        21.7369   -1.1919   -4.4462 H         1 UNK         0.0793 
     98 H98        20.9235   -1.5166   -2.9236 H         1 UNK         0.0793 
     99 H99        23.7155   -1.7058   -1.3873 H         1 UNK         0.3024 
    100 H100       25.6725   -3.0632   -1.8417 H         1 UNK         0.1171 
    101 H101       23.4668   -4.9544   -2.8866 H         1 UNK         0.0786 
    102 H102       23.4155   -4.1189   -1.3404 H         1 UNK         0.0786 
    103 H103       24.6283   -5.3491   -1.6229 H         1 UNK         0.0786 
    104 H104       25.6906   -3.7393   -4.6197 H         1 UNK         0.2977 
    105 H105       27.2434    3.5501   -5.8360 H         1 UNK         0.3127 
    106 H106       29.6862    4.1692   -7.1832 H         1 UNK         0.0770 
    107 H107       26.8890    5.4047   -7.4566 H         1 UNK         0.0814 
    108 H108       28.3809    6.1193   -8.0513 H         1 UNK         0.0814 
    109 H109       28.1418    5.9184   -6.3242 H         1 UNK         0.0814 
    110 H110       26.7620    2.4986   -8.2397 H         1 UNK         0.2983 
    111 H111       27.9007    2.1682  -10.9977 H         1 UNK         0.0947 
    112 H112       25.5418    1.7781  -11.7092 H         1 UNK         0.0806 
    113 H113       25.7326    3.3871  -11.0309 H         1 UNK         0.0806 
    114 H114       24.9729    2.1137  -10.0779 H         1 UNK         0.0806 
    115 H115       26.2472    0.6027   -8.2221 H         1 UNK         0.3000 
    116 H116       26.2932   -2.0348   -9.3799 H         1 UNK         0.0850 
    117 H117       25.7249   -1.1440   -6.5046 H         1 UNK         0.0810 
    118 H118       25.2963   -2.6869   -7.2133 H         1 UNK         0.0810 
    119 H119       24.5297   -1.2210   -7.7947 H         1 UNK         0.0810 
    120 H120       28.8519   -0.3204   -8.0865 H         1 UNK         0.3040 
    121 H121       30.4121   -2.8066   -7.7776 H         1 UNK         0.0766 
    122 H122       31.5105   -2.1359   -5.7734 H         1 UNK         0.0812 
    123 H123       30.8785   -0.5076   -5.8031 H         1 UNK         0.0812 
    124 H124       29.8127   -1.8382   -5.4152 H         1 UNK         0.0812 
    125 H125       30.5317    0.7720   -7.7738 H         1 UNK         0.3205 
    126 H126       31.7469    2.3114   -8.7741 H         1 UNK         0.0754 
    127 H127       32.5427    2.0332  -11.0915 H         1 UNK         0.0769 
    128 H128       30.9415    1.3321  -10.9284 H         1 UNK         0.0769 
    129 H129       32.3619    0.2877  -10.9932 H         1 UNK         0.0769 
    130 H130       32.8568    0.9349   -6.6779 H         1 UNK         0.2981 
    131 H131       35.5240    0.0609   -7.1265 H         1 UNK         0.0541 
    132 H132       37.5290    0.9952   -6.1041 H         1 UNK         0.3459 
    133 H133       37.7068    2.7294   -6.1526 H         1 UNK         0.3459 
    134 H134       35.6537   -0.0702   -4.6475 H         1 UNK         0.0612 
    135 H135       34.2319   -0.8470   -5.2842 H         1 UNK         0.0612 
    136 H136       34.5590   -0.4811   -2.4598 H         1 UNK         0.0624 
    137 H137       33.5641    0.7133   -1.6726 H         1 UNK         0.0624 
@<TRIPOS>BOND
     1    1    2 1    
     2    1   72 1    
     3    1   73 1    
     4    1   74 1    
     5    2    3 2    
     6    2    4 am   BACKBONE|DICT|INTERRES
     7    4    5 1    
     8    4   75 1    
     9    5    6 1    
    10    5   35 1    
    11    5   76 1    
    12    6    7 1    
    13    6   77 1    
    14    6   78 1    
    15    7    8 1    
    16    8    9 1    
    17    8   79 1    
    18    8   80 1    
    19    9   10 ar   
    20    9   14 ar   
    21   10   11 ar   
    22   10   81 1    
    23   11   12 ar   
    24   11   71 1    
    25   12   13 ar   
    26   12   82 1    
    27   13   14 ar   
    28   13   15 1    
    29   14   83 1    
    30   15   16 1    
    31   15   84 1    
    32   15   85 1    
    33   16   17 1    
    34   17   18 1    
    35   17   86 1    
    36   17   87 1    
    37   18   19 1    
    38   18   37 1    
    39   18   88 1    
    40   19   20 am   BACKBONE|DICT|INTERRES
    41   19   89 1    
    42   20   21 2    
    43   20   22 1    
    44   22   23 1    
    45   22   24 1    
    46   22   90 1    
    47   23   91 1    
    48   23   92 1    
    49   23   93 1    
    50   24   25 am   BACKBONE|DICT|INTERRES
    51   24   94 1    
    52   25   26 2    
    53   25   27 1    
    54   27   28 1    
    55   27   29 1    
    56   27   95 1    
    57   28   96 1    
    58   28   97 1    
    59   28   98 1    
    60   29   30 am   BACKBONE|DICT|INTERRES
    61   29   99 1    
    62   30   31 2    
    63   30   32 1    
    64   32   33 1    
    65   32   34 1    
    66   32  100 1    
    67   33  101 1    
    68   33  102 1    
    69   33  103 1    
    70   34   35 am   BACKBONE|DICT|INTERRES
    71   34  104 1    
    72   35   36 2    
    73   37   38 2    
    74   37   39 am   BACKBONE|DICT|INTERRES
    75   39   40 1    
    76   39  105 1    
    77   40   41 1    
    78   40   42 1    
    79   40  106 1    
    80   41  107 1    
    81   41  108 1    
    82   41  109 1    
    83   42   43 2    
    84   42   44 am   BACKBONE|DICT|INTERRES
    85   44   45 1    
    86   44  110 1    
    87   45   46 1    
    88   45   47 1    
    89   45  111 1    
    90   46  112 1    
    91   46  113 1    
    92   46  114 1    
    93   47   48 2    
    94   47   49 am   BACKBONE|DICT|INTERRES
    95   49   50 1    
    96   49  115 1    
    97   50   51 1    
    98   50   52 1    
    99   50  116 1    
   100   51  117 1    
   101   51  118 1    
   102   51  119 1    
   103   52   53 2    
   104   52   54 am   BACKBONE|DICT|INTERRES
   105   54   55 1    
   106   54  120 1    
   107   55   56 1    
   108   55   57 1    
   109   55  121 1    
   110   56  122 1    
   111   56  123 1    
   112   56  124 1    
   113   57   58 2    
   114   57   59 am   BACKBONE|DICT|INTERRES
   115   59   60 1    
   116   59  125 1    
   117   60   61 1    
   118   60   62 1    
   119   60  126 1    
   120   61  127 1    
   121   61  128 1    
   122   61  129 1    
   123   62   63 2    
   124   62   64 am   BACKBONE|DICT|INTERRES
   125   64   65 1    
   126   64  130 1    
   127   65   66 1    
   128   65   69 1    
   129   65  131 1    
   130   66   67 am   BACKBONE|DICT|INTERRES
   131   66   68 2    
   132   67  132 1    
   133   67  133 1    
   134   69   70 1    
   135   69  134 1    
   136   69  135 1    
   137   70   71 1    
   138   71  136 1    
   139   71  137 1    
@<TRIPOS>SUBSTRUCTURE
     1 UNK         1 GROUP             0       ****    0 ROOT    
