@<TRIPOS>MOLECULE
3R137
137   139    1
SMALL
USER_CHARGES


@<TRIPOS>ATOM
      1 CA         28.6294   -4.9996    1.0955 C.3       0 UNK        -0.2020 
      2 C          28.2123   -3.5380    1.1586 C.2       0 UNK         0.4855 
      3 O          27.4511   -3.1553    2.0471 O.2       0 UNK        -0.5197 
      4 N          28.7054   -2.7183    0.2212 N.am      1 UNK        -0.4892 
      5 CA         28.3881   -1.2884    0.1026 C.3       1 UNK         0.0835 
      6 C6         29.4647   -0.5241   -0.7119 C.3       12 UNK        -0.0855 
      7 S7         29.6454   -1.0861   -2.4410 S.3       12 UNK        -0.2931 
      8 C8         31.0557   -2.2318   -2.3071 C.3       12 UNK         0.0378 
      9 C9         31.2947   -2.9820   -3.6093 C.ar      12 UNK        -0.0802 
     10 C10        32.5611   -2.9757   -4.2000 C.ar      12 UNK        -0.0944 
     11 C11        32.7860   -3.6393   -5.4079 C.ar      12 UNK        -0.0787 
     12 C12        31.7335   -4.3282   -6.0201 C.ar      12 UNK        -0.0862 
     13 C13        30.4683   -4.3672   -5.4248 C.ar      12 UNK        -0.0733 
     14 C14        30.2572   -3.6971   -4.2175 C.ar      12 UNK        -0.0832 
     15 C15        29.3386   -5.1518   -6.0753 C.3       12 UNK         0.0240 
     16 S16        28.4363   -4.1531   -7.2976 S.3       12 UNK        -0.2522 
     17 C17        27.2147   -3.2837   -6.2558 C.3       12 UNK        -0.0967 
     18 CA         26.4047   -2.2560   -7.0871 C.3       5 UNK         0.0660 
     19 N          25.0669   -2.0146   -6.5487 N.am      5 UNK        -0.4015 
     20 C          23.9832   -1.7902   -7.3080 C.2       4 UNK         0.4946 
     21 O          23.9733   -1.8796   -8.5364 O.2       4 UNK        -0.5353 
     22 CA         22.6821   -1.3852   -6.5904 C.3       4 UNK         0.0277 
     23 CB         21.8090   -2.6221   -6.3237 C.3       4 UNK        -0.1981 
     24 N          22.8980   -0.6665   -5.3334 N.am      4 UNK        -0.4209 
     25 C          23.5154    0.5183   -5.2191 C.2       3 UNK         0.4942 
     26 O          23.9396    1.1680   -6.1732 O.2       3 UNK        -0.5208 
     27 CA         23.7516    1.0348   -3.7904 C.3       3 UNK         0.0250 
     28 CB         22.5601    1.8858   -3.3235 C.3       3 UNK        -0.1990 
     29 N          24.0121   -0.0260   -2.8092 N.am      3 UNK        -0.4232 
     30 C          24.9938   -0.9361   -2.8890 C.2       2 UNK         0.4993 
     31 O          25.7822   -1.0252   -3.8354 O.2       2 UNK        -0.5286 
     32 CA         25.0656   -1.9645   -1.7521 C.3       2 UNK         0.0209 
     33 CB         24.6925   -3.3629   -2.2723 C.3       2 UNK        -0.1931 
     34 N          26.4008   -2.0128   -1.1612 N.am      2 UNK        -0.4546 
     35 C          26.9595   -1.0357   -0.4314 C.2       1 UNK         0.5154 
     36 O          26.3862    0.0185   -0.1509 O.2       1 UNK        -0.5181 
     37 C          27.1499   -0.9201   -7.2357 C.2       5 UNK         0.5014 
     38 O          27.6569   -0.6387   -8.3208 O.2       5 UNK        -0.5248 
     39 N          27.1751   -0.1084   -6.1660 N.am      6 UNK        -0.4434 
     40 CA         27.9280    1.1500   -6.0712 C.3       6 UNK         0.0363 
     41 CB         27.7856    1.7212   -4.6523 C.3       6 UNK        -0.1936 
     42 C          27.5598    2.2198   -7.1184 C.2       6 UNK         0.5081 
     43 O          28.3876    3.0803   -7.4174 O.2       6 UNK        -0.5248 
     44 N          26.3395    2.1571   -7.6684 N.am      7 UNK        -0.4718 
     45 CA         25.8928    2.9928   -8.7859 C.3       7 UNK         0.0273 
     46 CB         24.3664    2.8740   -8.9240 C.3       7 UNK        -0.1935 
     47 C          26.5765    2.6594  -10.1274 C.2       7 UNK         0.5018 
     48 O          26.5750    3.5127  -11.0162 O.2       7 UNK        -0.5186 
     49 N          27.1227    1.4429  -10.2647 N.am      8 UNK        -0.4240 
     50 CA         27.7751    0.9481  -11.4780 C.3       8 UNK         0.0235 
     51 CB         27.0686   -0.3364  -11.9450 C.3       8 UNK        -0.2000 
     52 C          29.2697    0.6899  -11.2447 C.2       8 UNK         0.4941 
     53 O          30.0917    1.1387  -12.0450 O.2       8 UNK        -0.5273 
     54 N          29.6006   -0.0322  -10.1677 N.am      9 UNK        -0.4262 
     55 CA         30.9645   -0.3668   -9.7730 C.3       9 UNK         0.0264 
     56 CB         30.9429   -1.6630   -8.9432 C.3       9 UNK        -0.1955 
     57 C          31.5576    0.7911   -8.9631 C.2       9 UNK         0.5031 
     58 O          31.0318    1.1110   -7.8963 O.2       9 UNK        -0.5390 
     59 N          32.6564    1.3788   -9.4570 N.am      10 UNK        -0.4204 
     60 CA         33.3607    2.5075   -8.8299 C.3       10 UNK         0.0237 
     61 CB         34.4986    2.9716   -9.7540 C.3       10 UNK        -0.1985 
     62 C          33.9000    2.2151   -7.4157 C.2       10 UNK         0.4970 
     63 O          34.0532    3.1446   -6.6225 O.2       10 UNK        -0.4914 
     64 N          34.1599    0.9351   -7.1287 N.am      11 UNK        -0.4285 
     65 CA         34.4819    0.4021   -5.8003 C.3       11 UNK         0.1007 
     66 C          33.2946    0.3810   -4.7924 C.2       11 UNK         0.5703 
     67 N          32.0477    0.5789   -5.2046 N.am      11 UNK        -0.7361 
     68 O          33.5210    0.2042   -3.5979 O.2       11 UNK        -0.4986 
     69 C69        35.2071   -0.9703   -5.9008 C.3       12 UNK        -0.0947 
     70 S70        34.4407   -2.1560   -7.0677 S.3       12 UNK        -0.2240 
     71 C71        34.1697   -3.6324   -6.0393 C.3       12 UNK         0.0194 
     72 H72        27.7523   -5.6348    0.9747 H         1 UNK         0.0906 
     73 H73        29.3076   -5.1966    0.2653 H         1 UNK         0.0906 
     74 H74        29.1326   -5.2859    2.0187 H         1 UNK         0.0906 
     75 H75        29.3219   -3.0849   -0.4884 H         1 UNK         0.3140 
     76 H76        28.4023   -0.8713    1.1124 H         1 UNK         0.1085 
     77 H77        30.4299   -0.5986   -0.2083 H         1 UNK         0.0836 
     78 H78        29.2322    0.5426   -0.7285 H         1 UNK         0.0836 
     79 H79        31.9410   -1.6613   -2.0208 H         1 UNK         0.0731 
     80 H80        30.8819   -2.9575   -1.5134 H         1 UNK         0.0731 
     81 H81        33.3741   -2.4465   -3.7235 H         1 UNK         0.1312 
     82 H82        31.9007   -4.8431   -6.9564 H         1 UNK         0.1406 
     83 H83        29.2807   -3.7203   -3.7540 H         1 UNK         0.1631 
     84 H84        28.6469   -5.5319   -5.3219 H         1 UNK         0.0717 
     85 H85        29.7479   -6.0293   -6.5781 H         1 UNK         0.0717 
     86 H86        26.5462   -4.0416   -5.8441 H         1 UNK         0.0934 
     87 H87        27.7066   -2.8182   -5.3993 H         1 UNK         0.0934 
     88 H88        26.2903   -2.6684   -8.0925 H         1 UNK         0.0739 
     89 H89        25.0099   -1.8583   -5.5489 H         1 UNK         0.3093 
     90 H90        22.1367   -0.7173   -7.2606 H         1 UNK         0.0818 
     91 H91        20.8436   -2.3440   -5.9002 H         1 UNK         0.0819 
     92 H92        21.6093   -3.1649   -7.2488 H         1 UNK         0.0819 
     93 H93        22.2914   -3.3179   -5.6359 H         1 UNK         0.0819 
     94 H94        22.5795   -1.1191   -4.4892 H         1 UNK         0.3041 
     95 H95        24.6324    1.6764   -3.8166 H         1 UNK         0.0784 
     96 H96        22.3594    2.6946   -4.0278 H         1 UNK         0.0793 
     97 H97        21.6476    1.2943   -3.2380 H         1 UNK         0.0793 
     98 H98        22.7555    2.3455   -2.3545 H         1 UNK         0.0793 
     99 H99        23.4128   -0.0336   -1.9961 H         1 UNK         0.3024 
    100 H100       24.3593   -1.6863   -0.9666 H         1 UNK         0.1171 
    101 H101       23.6903   -3.3663   -2.7031 H         1 UNK         0.0786 
    102 H102       24.7002   -4.0999   -1.4689 H         1 UNK         0.0786 
    103 H103       25.3812   -3.7041   -3.0467 H         1 UNK         0.0786 
    104 H104       26.9606   -2.8272   -1.3628 H         1 UNK         0.2977 
    105 H105       26.7118   -0.4153   -5.3123 H         1 UNK         0.3127 
    106 H106       28.9779    0.8965   -6.2279 H         1 UNK         0.0770 
    107 H107       26.7693    2.0596   -4.4581 H         1 UNK         0.0814 
    108 H108       28.4458    2.5780   -4.5118 H         1 UNK         0.0814 
    109 H109       28.0453    0.9835   -3.8936 H         1 UNK         0.0814 
    110 H110       25.6720    1.4862   -7.3019 H         1 UNK         0.2983 
    111 H111       26.1343    4.0317   -8.5505 H         1 UNK         0.0947 
    112 H112       23.9972    3.4814   -9.7516 H         1 UNK         0.0806 
    113 H113       23.8599    3.2176   -8.0219 H         1 UNK         0.0806 
    114 H114       24.0580    1.8441   -9.1093 H         1 UNK         0.0806 
    115 H115       27.1272    0.8174   -9.4634 H         1 UNK         0.3000 
    116 H116       27.6955    1.6829  -12.2821 H         1 UNK         0.0850 
    117 H117       27.5457   -0.7430  -12.8377 H         1 UNK         0.0810 
    118 H118       26.0253   -0.1429  -12.1946 H         1 UNK         0.0810 
    119 H119       27.0886   -1.1133  -11.1793 H         1 UNK         0.0810 
    120 H120       28.8695   -0.3114   -9.5126 H         1 UNK         0.3040 
    121 H121       31.5680   -0.5429  -10.6660 H         1 UNK         0.0766 
    122 H122       31.9521   -1.9712   -8.6723 H         1 UNK         0.0812 
    123 H123       30.4920   -2.4847   -9.4995 H         1 UNK         0.0812 
    124 H124       30.3802   -1.5444   -8.0154 H         1 UNK         0.0812 
    125 H125       33.0178    1.0590  -10.3447 H         1 UNK         0.3205 
    126 H126       32.6422    3.3243   -8.7345 H         1 UNK         0.0754 
    127 H127       35.0232    3.8281   -9.3278 H         1 UNK         0.0769 
    128 H128       34.1190    3.2803  -10.7283 H         1 UNK         0.0769 
    129 H129       35.2364    2.1840   -9.9132 H         1 UNK         0.0769 
    130 H130       34.0003    0.2388   -7.8409 H         1 UNK         0.2981 
    131 H131       35.2008    1.0945   -5.3580 H         1 UNK         0.0541 
    132 H132       31.8270    0.7482   -6.1816 H         1 UNK         0.3459 
    133 H133       31.3062    0.5425   -4.5246 H         1 UNK         0.3459 
    134 H134       35.3220   -1.4258   -4.9160 H         1 UNK         0.0612 
    135 H135       36.2250   -0.8020   -6.2552 H         1 UNK         0.0612 
    136 H136       34.2899   -4.5144   -6.6701 H         1 UNK         0.0624 
    137 H137       34.9413   -3.7082   -5.2720 H         1 UNK         0.0624 
@<TRIPOS>BOND
     1    1    2 1    
     2    1   72 1    
     3    1   73 1    
     4    1   74 1    
     5    2    3 2    
     6    2    4 am   BACKBONE|DICT|INTERRES
     7    4    5 1    
     8    4   75 1    
     9    5    6 1    
    10    5   35 1    
    11    5   76 1    
    12    6    7 1    
    13    6   77 1    
    14    6   78 1    
    15    7    8 1    
    16    8    9 1    
    17    8   79 1    
    18    8   80 1    
    19    9   10 ar   
    20    9   14 ar   
    21   10   11 ar   
    22   10   81 1    
    23   11   12 ar   
    24   11   71 1    
    25   12   13 ar   
    26   12   82 1    
    27   13   14 ar   
    28   13   15 1    
    29   14   83 1    
    30   15   16 1    
    31   15   84 1    
    32   15   85 1    
    33   16   17 1    
    34   17   18 1    
    35   17   86 1    
    36   17   87 1    
    37   18   19 1    
    38   18   37 1    
    39   18   88 1    
    40   19   20 am   BACKBONE|DICT|INTERRES
    41   19   89 1    
    42   20   21 2    
    43   20   22 1    
    44   22   23 1    
    45   22   24 1    
    46   22   90 1    
    47   23   91 1    
    48   23   92 1    
    49   23   93 1    
    50   24   25 am   BACKBONE|DICT|INTERRES
    51   24   94 1    
    52   25   26 2    
    53   25   27 1    
    54   27   28 1    
    55   27   29 1    
    56   27   95 1    
    57   28   96 1    
    58   28   97 1    
    59   28   98 1    
    60   29   30 am   BACKBONE|DICT|INTERRES
    61   29   99 1    
    62   30   31 2    
    63   30   32 1    
    64   32   33 1    
    65   32   34 1    
    66   32  100 1    
    67   33  101 1    
    68   33  102 1    
    69   33  103 1    
    70   34   35 am   BACKBONE|DICT|INTERRES
    71   34  104 1    
    72   35   36 2    
    73   37   38 2    
    74   37   39 am   BACKBONE|DICT|INTERRES
    75   39   40 1    
    76   39  105 1    
    77   40   41 1    
    78   40   42 1    
    79   40  106 1    
    80   41  107 1    
    81   41  108 1    
    82   41  109 1    
    83   42   43 2    
    84   42   44 am   BACKBONE|DICT|INTERRES
    85   44   45 1    
    86   44  110 1    
    87   45   46 1    
    88   45   47 1    
    89   45  111 1    
    90   46  112 1    
    91   46  113 1    
    92   46  114 1    
    93   47   48 2    
    94   47   49 am   BACKBONE|DICT|INTERRES
    95   49   50 1    
    96   49  115 1    
    97   50   51 1    
    98   50   52 1    
    99   50  116 1    
   100   51  117 1    
   101   51  118 1    
   102   51  119 1    
   103   52   53 2    
   104   52   54 am   BACKBONE|DICT|INTERRES
   105   54   55 1    
   106   54  120 1    
   107   55   56 1    
   108   55   57 1    
   109   55  121 1    
   110   56  122 1    
   111   56  123 1    
   112   56  124 1    
   113   57   58 2    
   114   57   59 am   BACKBONE|DICT|INTERRES
   115   59   60 1    
   116   59  125 1    
   117   60   61 1    
   118   60   62 1    
   119   60  126 1    
   120   61  127 1    
   121   61  128 1    
   122   61  129 1    
   123   62   63 2    
   124   62   64 am   BACKBONE|DICT|INTERRES
   125   64   65 1    
   126   64  130 1    
   127   65   66 1    
   128   65   69 1    
   129   65  131 1    
   130   66   67 am   BACKBONE|DICT|INTERRES
   131   66   68 2    
   132   67  132 1    
   133   67  133 1    
   134   69   70 1    
   135   69  134 1    
   136   69  135 1    
   137   70   71 1    
   138   71  136 1    
   139   71  137 1    
@<TRIPOS>SUBSTRUCTURE
     1 UNK         1 GROUP             0       ****    0 ROOT    
