@<TRIPOS>MOLECULE
3R137
137   139    1
SMALL
USER_CHARGES


@<TRIPOS>ATOM
      1 CA         26.7419   -3.2208    1.5458 C.3       0 UNK        -0.2020 
      2 C          27.1301   -2.7979    0.1377 C.2       0 UNK         0.4855 
      3 O          26.2689   -2.7288   -0.7379 O.2       0 UNK        -0.5197 
      4 N          28.4169   -2.4911   -0.0830 N.am      1 UNK        -0.4892 
      5 CA         29.0156   -2.1231   -1.3808 C.3       1 UNK         0.0835 
      6 C6         29.0141   -3.2873   -2.4071 C.3       12 UNK        -0.0855 
      7 S7         29.7065   -4.8511   -1.7487 S.3       12 UNK        -0.2931 
      8 C8         31.3561   -4.9332   -2.5360 C.3       12 UNK         0.0378 
      9 C9         31.3551   -4.8368   -4.0619 C.ar      12 UNK        -0.0802 
     10 C10        32.4851   -4.3272   -4.7065 C.ar      12 UNK        -0.0944 
     11 C11        32.4947   -4.1397   -6.0912 C.ar      12 UNK        -0.0787 
     12 C12        31.3571   -4.4624   -6.8376 C.ar      12 UNK        -0.0862 
     13 C13        30.2246   -4.9911   -6.2105 C.ar      12 UNK        -0.0733 
     14 C14        30.2471   -5.2112   -4.8309 C.ar      12 UNK        -0.0832 
     15 C15        28.9634   -5.2909   -7.0140 C.3       12 UNK         0.0240 
     16 S16        27.4707   -4.5317   -6.2811 S.3       12 UNK        -0.2522 
     17 C17        27.9057   -2.7588   -6.2971 C.3       12 UNK        -0.0967 
     18 CA         26.8912   -1.9230   -7.1086 C.3       5 UNK         0.0660 
     19 N          25.5516   -1.9492   -6.5150 N.am      5 UNK        -0.4015 
     20 C          24.4457   -1.4547   -7.0870 C.2       4 UNK         0.4946 
     21 O          24.4226   -0.9594   -8.2147 O.2       4 UNK        -0.5353 
     22 CA         23.1523   -1.4742   -6.2489 C.3       4 UNK         0.0277 
     23 CB         22.3294   -2.7322   -6.5706 C.3       4 UNK        -0.1981 
     24 N          23.3359   -1.3742   -4.7919 N.am      4 UNK        -0.4209 
     25 C          24.0234   -0.4181   -4.1475 C.2       3 UNK         0.4942 
     26 O          24.6735    0.4436   -4.7386 O.2       3 UNK        -0.5208 
     27 CA         23.9735   -0.4177   -2.6029 C.3       3 UNK         0.0250 
     28 CB         23.4682   -1.7440   -1.9989 C.3       3 UNK        -0.1990 
     29 N          25.2803   -0.0900   -2.0228 N.am      3 UNK        -0.4232 
     30 C          25.7902    1.1484   -1.9194 C.2       2 UNK         0.4993 
     31 O          25.1520    2.1669   -2.1912 O.2       2 UNK        -0.5286 
     32 CA         27.2384    1.3100   -1.4079 C.3       2 UNK         0.0209 
     33 CB         27.2840    2.2160   -0.1643 C.3       2 UNK        -0.1931 
     34 N          27.9162    0.0522   -1.0886 N.am      2 UNK        -0.4546 
     35 C          28.4122   -0.8239   -1.9738 C.2       1 UNK         0.5154 
     36 O          28.3770   -0.6461   -3.1934 O.2       1 UNK        -0.5181 
     37 C          27.4320   -0.4955   -7.3292 C.2       5 UNK         0.5014 
     38 O          28.2165   -0.3127   -8.2595 O.2       5 UNK        -0.5248 
     39 N          26.9886    0.4930   -6.5326 N.am      6 UNK        -0.4434 
     40 CA         27.4090    1.8973   -6.6349 C.3       6 UNK         0.0363 
     41 CB         26.8197    2.7051   -5.4697 C.3       6 UNK        -0.1936 
     42 C          27.0582    2.5613   -7.9792 C.2       6 UNK         0.5081 
     43 O          27.7187    3.5247   -8.3685 O.2       6 UNK        -0.5248 
     44 N          26.0404    2.0324   -8.6730 N.am      7 UNK        -0.4718 
     45 CA         25.6670    2.4364  -10.0285 C.3       7 UNK         0.0273 
     46 CB         24.2189    1.9974  -10.2994 C.3       7 UNK        -0.1935 
     47 C          26.6115    1.8706  -11.1063 C.2       7 UNK         0.5018 
     48 O          26.6505    2.4231  -12.2065 O.2       7 UNK        -0.5186 
     49 N          27.3362    0.7866  -10.7929 N.am      8 UNK        -0.4240 
     50 CA         28.2803    0.1300  -11.6957 C.3       8 UNK         0.0235 
     51 CB         28.2231   -1.3942  -11.4922 C.3       8 UNK        -0.2000 
     52 C          29.7076    0.6553  -11.4909 C.2       8 UNK         0.4941 
     53 O          30.3833    0.9410  -12.4808 O.2       8 UNK        -0.5273 
     54 N          30.1463    0.7791  -10.2311 N.am      9 UNK        -0.4262 
     55 CA         31.4831    1.2413   -9.8605 C.3       9 UNK         0.0264 
     56 CB         32.4989    0.0958  -10.0308 C.3       9 UNK        -0.1955 
     57 C          31.4747    1.7503   -8.4162 C.2       9 UNK         0.5031 
     58 O          30.6509    1.3090   -7.6159 O.2       9 UNK        -0.5390 
     59 N          32.4264    2.6353   -8.0887 N.am      10 UNK        -0.4204 
     60 CA         32.5683    3.2939   -6.7807 C.3       10 UNK         0.0237 
     61 CB         33.7227    4.3075   -6.8547 C.3       10 UNK        -0.1985 
     62 C          32.7598    2.3494   -5.5756 C.2       10 UNK         0.4970 
     63 O          32.5369    2.7752   -4.4416 O.2       10 UNK        -0.4914 
     64 N          33.1597    1.0994   -5.8352 N.am      11 UNK        -0.4285 
     65 CA         33.2212    0.0047   -4.8589 C.3       11 UNK         0.1007 
     66 C          31.8405   -0.4897   -4.3305 C.2       11 UNK         0.5703 
     67 N          30.7201   -0.1634   -4.9663 N.am      11 UNK        -0.7361 
     68 O          31.7903   -1.1446   -3.2923 O.2       11 UNK        -0.4986 
     69 C69        34.1203   -1.1520   -5.3696 C.3       12 UNK        -0.0947 
     70 S70        33.6431   -1.7887   -7.0160 S.3       12 UNK        -0.2240 
     71 C71        33.7330   -3.5901   -6.7826 C.3       12 UNK         0.0194 
     72 H72        26.3254   -4.2276    1.5311 H         1 UNK         0.0906 
     73 H73        27.5949   -3.2165    2.2241 H         1 UNK         0.0906 
     74 H74        25.9860   -2.5452    1.9452 H         1 UNK         0.0906 
     75 H75        29.0741   -2.5664    0.6817 H         1 UNK         0.3140 
     76 H76        30.0598   -1.8817   -1.1747 H         1 UNK         0.1085 
     77 H77        29.5691   -2.9885   -3.2974 H         1 UNK         0.0836 
     78 H78        27.9976   -3.4923   -2.7477 H         1 UNK         0.0836 
     79 H79        31.9632   -4.1274   -2.1196 H         1 UNK         0.0731 
     80 H80        31.8367   -5.8678   -2.2450 H         1 UNK         0.0731 
     81 H81        33.3544   -4.0582   -4.1230 H         1 UNK         0.1312 
     82 H82        31.3539   -4.2927   -7.9058 H         1 UNK         0.1406 
     83 H83        29.3685   -5.6210   -4.3530 H         1 UNK         0.1631 
     84 H84        28.8235   -6.3714   -7.0643 H         1 UNK         0.0717 
     85 H85        29.0645   -4.9413   -8.0428 H         1 UNK         0.0717 
     86 H86        27.9644   -2.4038   -5.2668 H         1 UNK         0.0934 
     87 H87        28.9101   -2.6390   -6.7093 H         1 UNK         0.0934 
     88 H88        26.8067   -2.3715   -8.1011 H         1 UNK         0.0739 
     89 H89        25.4791   -2.3449   -5.5898 H         1 UNK         0.3093 
     90 H90        22.5703   -0.6018   -6.5528 H         1 UNK         0.0818 
     91 H91        21.3518   -2.7033   -6.0890 H         1 UNK         0.0819 
     92 H92        22.1550   -2.8211   -7.6441 H         1 UNK         0.0819 
     93 H93        22.8383   -3.6412   -6.2474 H         1 UNK         0.0819 
     94 H94        22.8379   -2.0515   -4.2323 H         1 UNK         0.3041 
     95 H95        23.2655    0.3624   -2.3159 H         1 UNK         0.0784 
     96 H96        22.4315   -1.9417   -2.2740 H         1 UNK         0.0793 
     97 H97        24.0710   -2.5943   -2.3214 H         1 UNK         0.0793 
     98 H98        23.5019   -1.7154   -0.9094 H         1 UNK         0.0793 
     99 H99        25.8580   -0.8778   -1.7514 H         1 UNK         0.3024 
    100 H100       27.7985    1.8003   -2.2071 H         1 UNK         0.1171 
    101 H101       26.8489    3.1944   -0.3736 H         1 UNK         0.0786 
    102 H102       28.3089    2.3870    0.1658 H         1 UNK         0.0786 
    103 H103       26.7285    1.7843    0.6692 H         1 UNK         0.0786 
    104 H104       27.9669   -0.1970   -0.1112 H         1 UNK         0.2977 
    105 H105       26.2868    0.2894   -5.8249 H         1 UNK         0.3127 
    106 H106       28.4930    1.9194   -6.5305 H         1 UNK         0.0770 
    107 H107       25.7315    2.7546   -5.5210 H         1 UNK         0.0814 
    108 H108       27.0911    2.2677   -4.5100 H         1 UNK         0.0814 
    109 H109       27.1931    3.7298   -5.4773 H         1 UNK         0.0814 
    110 H110       25.5520    1.2361   -8.2828 H         1 UNK         0.2983 
    111 H111       25.7116    3.5260  -10.0932 H         1 UNK         0.0947 
    112 H112       23.8928    2.3174  -11.2901 H         1 UNK         0.0806 
    113 H113       23.5295    2.4327   -9.5759 H         1 UNK         0.0806 
    114 H114       24.1112    0.9128  -10.2556 H         1 UNK         0.0806 
    115 H115       27.3121    0.4367   -9.8404 H         1 UNK         0.3000 
    116 H116       27.9959    0.3328  -12.7308 H         1 UNK         0.0850 
    117 H117       28.8867   -1.9032  -12.1925 H         1 UNK         0.0810 
    118 H118       27.2171   -1.7784  -11.6613 H         1 UNK         0.0810 
    119 H119       28.5282   -1.6871  -10.4874 H         1 UNK         0.0810 
    120 H120       29.5429    0.5329   -9.4465 H         1 UNK         0.3040 
    121 H121       31.7616    2.0748  -10.5090 H         1 UNK         0.0766 
    122 H122       33.4932    0.3885   -9.6916 H         1 UNK         0.0812 
    123 H123       32.5912   -0.2028  -11.0750 H         1 UNK         0.0812 
    124 H124       32.2023   -0.7844   -9.4595 H         1 UNK         0.0812 
    125 H125       33.0807    2.9215   -8.8032 H         1 UNK         0.3205 
    126 H126       31.6428    3.8446   -6.5996 H         1 UNK         0.0754 
    127 H127       33.8361    4.8426   -5.9106 H         1 UNK         0.0769 
    128 H128       33.5467    5.0563   -7.6273 H         1 UNK         0.0769 
    129 H129       34.6745    3.8192   -7.0683 H         1 UNK         0.0769 
    130 H130       33.2935    0.8270   -6.7969 H         1 UNK         0.2981 
    131 H131       33.7229    0.4128   -3.9793 H         1 UNK         0.0541 
    132 H132       30.7407    0.3607   -5.8351 H         1 UNK         0.3459 
    133 H133       29.8363   -0.4317   -4.5507 H         1 UNK         0.3459 
    134 H134       34.1514   -1.9621   -4.6414 H         1 UNK         0.0612 
    135 H135       35.1491   -0.7978   -5.4485 H         1 UNK         0.0612 
    136 H136       34.6348   -3.8447   -6.2236 H         1 UNK         0.0624 
    137 H137       33.8412   -4.0609   -7.7608 H         1 UNK         0.0624 
@<TRIPOS>BOND
     1    1    2 1    
     2    1   72 1    
     3    1   73 1    
     4    1   74 1    
     5    2    3 2    
     6    2    4 am   BACKBONE|DICT|INTERRES
     7    4    5 1    
     8    4   75 1    
     9    5    6 1    
    10    5   35 1    
    11    5   76 1    
    12    6    7 1    
    13    6   77 1    
    14    6   78 1    
    15    7    8 1    
    16    8    9 1    
    17    8   79 1    
    18    8   80 1    
    19    9   10 ar   
    20    9   14 ar   
    21   10   11 ar   
    22   10   81 1    
    23   11   12 ar   
    24   11   71 1    
    25   12   13 ar   
    26   12   82 1    
    27   13   14 ar   
    28   13   15 1    
    29   14   83 1    
    30   15   16 1    
    31   15   84 1    
    32   15   85 1    
    33   16   17 1    
    34   17   18 1    
    35   17   86 1    
    36   17   87 1    
    37   18   19 1    
    38   18   37 1    
    39   18   88 1    
    40   19   20 am   BACKBONE|DICT|INTERRES
    41   19   89 1    
    42   20   21 2    
    43   20   22 1    
    44   22   23 1    
    45   22   24 1    
    46   22   90 1    
    47   23   91 1    
    48   23   92 1    
    49   23   93 1    
    50   24   25 am   BACKBONE|DICT|INTERRES
    51   24   94 1    
    52   25   26 2    
    53   25   27 1    
    54   27   28 1    
    55   27   29 1    
    56   27   95 1    
    57   28   96 1    
    58   28   97 1    
    59   28   98 1    
    60   29   30 am   BACKBONE|DICT|INTERRES
    61   29   99 1    
    62   30   31 2    
    63   30   32 1    
    64   32   33 1    
    65   32   34 1    
    66   32  100 1    
    67   33  101 1    
    68   33  102 1    
    69   33  103 1    
    70   34   35 am   BACKBONE|DICT|INTERRES
    71   34  104 1    
    72   35   36 2    
    73   37   38 2    
    74   37   39 am   BACKBONE|DICT|INTERRES
    75   39   40 1    
    76   39  105 1    
    77   40   41 1    
    78   40   42 1    
    79   40  106 1    
    80   41  107 1    
    81   41  108 1    
    82   41  109 1    
    83   42   43 2    
    84   42   44 am   BACKBONE|DICT|INTERRES
    85   44   45 1    
    86   44  110 1    
    87   45   46 1    
    88   45   47 1    
    89   45  111 1    
    90   46  112 1    
    91   46  113 1    
    92   46  114 1    
    93   47   48 2    
    94   47   49 am   BACKBONE|DICT|INTERRES
    95   49   50 1    
    96   49  115 1    
    97   50   51 1    
    98   50   52 1    
    99   50  116 1    
   100   51  117 1    
   101   51  118 1    
   102   51  119 1    
   103   52   53 2    
   104   52   54 am   BACKBONE|DICT|INTERRES
   105   54   55 1    
   106   54  120 1    
   107   55   56 1    
   108   55   57 1    
   109   55  121 1    
   110   56  122 1    
   111   56  123 1    
   112   56  124 1    
   113   57   58 2    
   114   57   59 am   BACKBONE|DICT|INTERRES
   115   59   60 1    
   116   59  125 1    
   117   60   61 1    
   118   60   62 1    
   119   60  126 1    
   120   61  127 1    
   121   61  128 1    
   122   61  129 1    
   123   62   63 2    
   124   62   64 am   BACKBONE|DICT|INTERRES
   125   64   65 1    
   126   64  130 1    
   127   65   66 1    
   128   65   69 1    
   129   65  131 1    
   130   66   67 am   BACKBONE|DICT|INTERRES
   131   66   68 2    
   132   67  132 1    
   133   67  133 1    
   134   69   70 1    
   135   69  134 1    
   136   69  135 1    
   137   70   71 1    
   138   71  136 1    
   139   71  137 1    
@<TRIPOS>SUBSTRUCTURE
     1 UNK         1 GROUP             0       ****    0 ROOT    
