@<TRIPOS>MOLECULE
3R137
137   139    1
SMALL
USER_CHARGES


@<TRIPOS>ATOM
      1 CA         28.9129    1.1425    1.9461 C.3       0 UNK        -0.2020 
      2 C          29.5104   -0.2622    1.9603 C.2       0 UNK         0.4855 
      3 O          29.8470   -0.7630    3.0312 O.2       0 UNK        -0.5197 
      4 N          29.6694   -0.9383    0.8132 N.am      1 UNK        -0.4892 
      5 CA         29.2789   -0.5187   -0.5410 C.3       1 UNK         0.0835 
      6 C6         30.0429   -1.3134   -1.6308 C.3       12 UNK        -0.0855 
      7 S7         30.0552   -3.1285   -1.4007 S.3       12 UNK        -0.2931 
      8 C8         28.7886   -3.6836   -2.5931 C.3       12 UNK         0.0378 
      9 C9         29.2151   -3.7556   -4.0634 C.ar      12 UNK        -0.0802 
     10 C10        30.3366   -3.0910   -4.5795 C.ar      12 UNK        -0.0944 
     11 C11        30.6371   -3.1304   -5.9499 C.ar      12 UNK        -0.0787 
     12 C12        29.8001   -3.8599   -6.8020 C.ar      12 UNK        -0.0862 
     13 C13        28.6929   -4.5482   -6.3025 C.ar      12 UNK        -0.0733 
     14 C14        28.4171   -4.4989   -4.9357 C.ar      12 UNK        -0.0832 
     15 C15        27.7986   -5.3674   -7.2213 C.3       12 UNK         0.0240 
     16 S16        26.1222   -4.6625   -7.3481 S.3       12 UNK        -0.2522 
     17 C17        26.2334   -3.5977   -8.8292 C.3       12 UNK        -0.0967 
     18 CA         26.0172   -2.0862   -8.5614 C.3       5 UNK         0.0660 
     19 N          24.8412   -1.8186   -7.7287 N.am      5 UNK        -0.4015 
     20 C          24.2382   -0.6283   -7.6009 C.2       4 UNK         0.4946 
     21 O          24.5961    0.3862   -8.2014 O.2       4 UNK        -0.5353 
     22 CA         23.0736   -0.5495   -6.5967 C.3       4 UNK         0.0277 
     23 CB         21.7436   -0.8949   -7.2856 C.3       4 UNK        -0.1981 
     24 N          23.2608   -1.4125   -5.4219 N.am      4 UNK        -0.4209 
     25 C          24.2339   -1.2445   -4.5160 C.2       3 UNK         0.4942 
     26 O          25.0693   -0.3417   -4.5735 O.2       3 UNK        -0.5208 
     27 CA         24.3332   -2.2888   -3.4008 C.3       3 UNK         0.0250 
     28 CB         25.1290   -3.5084   -3.8929 C.3       3 UNK        -0.1990 
     29 N          24.9955   -1.6878   -2.2433 N.am      3 UNK        -0.4232 
     30 C          24.8959   -2.1289   -0.9846 C.2       2 UNK         0.4993 
     31 O          24.3139   -3.1708   -0.6749 O.2       2 UNK        -0.5286 
     32 CA         25.5419   -1.2595    0.1112 C.3       2 UNK         0.0209 
     33 CB         25.1055   -1.6761    1.5291 C.3       2 UNK        -0.1931 
     34 N          27.0048   -1.2739    0.0545 N.am      2 UNK        -0.4546 
     35 C          27.7503   -0.5273   -0.7703 C.2       1 UNK         0.5154 
     36 O          27.2685    0.1831   -1.6520 O.2       1 UNK        -0.5181 
     37 C          27.3029   -1.3902   -8.0703 C.2       5 UNK         0.5014 
     38 O          28.2394   -1.2703   -8.8614 O.2       5 UNK        -0.5248 
     39 N          27.3281   -0.8910   -6.8237 N.am      6 UNK        -0.4434 
     40 CA         28.4413   -0.1115   -6.2790 C.3       6 UNK         0.0363 
     41 CB         28.2242    0.1354   -4.7819 C.3       6 UNK        -0.1936 
     42 C          28.6597    1.2215   -7.0086 C.2       6 UNK         0.5081 
     43 O          29.8026    1.6668   -7.1072 O.2       6 UNK        -0.5248 
     44 N          27.5800    1.8222   -7.5267 N.am      7 UNK        -0.4718 
     45 CA         27.6404    3.0251   -8.3574 C.3       7 UNK         0.0273 
     46 CB         26.2558    3.6910   -8.3935 C.3       7 UNK        -0.1935 
     47 C          28.1329    2.7189   -9.7813 C.2       7 UNK         0.5018 
     48 O          28.8695    3.5234  -10.3511 O.2       7 UNK        -0.5186 
     49 N          27.7240    1.5630  -10.3239 N.am      8 UNK        -0.4240 
     50 CA         28.0708    1.1047  -11.6705 C.3       8 UNK         0.0235 
     51 CB         27.1097   -0.0170  -12.0991 C.3       8 UNK        -0.2000 
     52 C          29.5316    0.6415  -11.7757 C.2       8 UNK         0.4941 
     53 O          30.2315    1.0510  -12.7022 O.2       8 UNK        -0.5273 
     54 N          29.9661   -0.1934  -10.8223 N.am      9 UNK        -0.4262 
     55 CA         31.3208   -0.7507  -10.7552 C.3       9 UNK         0.0264 
     56 CB         31.2449   -2.1626  -10.1534 C.3       9 UNK        -0.1955 
     57 C          32.3220    0.1478  -10.0009 C.2       9 UNK         0.5031 
     58 O          33.4942   -0.2187   -9.9067 O.2       9 UNK        -0.5390 
     59 N          31.8597    1.3057   -9.5063 N.am      10 UNK        -0.4204 
     60 CA         32.6290    2.3757   -8.8604 C.3       10 UNK         0.0237 
     61 CB         33.6194    3.0190   -9.8558 C.3       10 UNK        -0.1985 
     62 C          33.2884    1.9625   -7.5292 C.2       10 UNK         0.4970 
     63 O          34.4253    2.3547   -7.2573 O.2       10 UNK        -0.4914 
     64 N          32.5406    1.2227   -6.7030 N.am      11 UNK        -0.4285 
     65 CA         32.8365    1.0398   -5.2730 C.3       11 UNK         0.1007 
     66 C          32.3154    2.2264   -4.4131 C.2       11 UNK         0.5703 
     67 N          31.3071    2.9705   -4.8565 N.am      11 UNK        -0.7361 
     68 O          32.8391    2.4767   -3.3306 O.2       11 UNK        -0.4986 
     69 C69        32.2822   -0.2967   -4.7206 C.3       12 UNK        -0.0947 
     70 S70        33.1003   -1.7646   -5.4266 S.3       12 UNK        -0.2240 
     71 C71        31.8226   -2.3825   -6.5729 C.3       12 UNK         0.0194 
     72 H72        29.4515    1.7963    1.2612 H         1 UNK         0.0906 
     73 H73        27.8617    1.1180    1.6615 H         1 UNK         0.0906 
     74 H74        28.9741    1.5899    2.9380 H         1 UNK         0.0906 
     75 H75        30.0789   -1.8624    0.8535 H         1 UNK         0.3140 
     76 H76        29.5803    0.5235   -0.6624 H         1 UNK         0.1085 
     77 H77        29.6746   -1.0626   -2.6246 H         1 UNK         0.0836 
     78 H78        31.0856   -0.9925   -1.6271 H         1 UNK         0.0836 
     79 H79        27.9147   -3.0363   -2.5110 H         1 UNK         0.0731 
     80 H80        28.4616   -4.6747   -2.2748 H         1 UNK         0.0731 
     81 H81        30.9712   -2.5329   -3.9120 H         1 UNK         0.1312 
     82 H82        30.0122   -3.8978   -7.8611 H         1 UNK         0.1406 
     83 H83        27.5588   -5.0352   -4.5541 H         1 UNK         0.1631 
     84 H84        27.7165   -6.3768   -6.8157 H         1 UNK         0.0717 
     85 H85        28.2415   -5.4796   -8.2119 H         1 UNK         0.0717 
     86 H86        27.1749   -3.7705   -9.3545 H         1 UNK         0.0934 
     87 H87        25.4621   -3.9430   -9.5195 H         1 UNK         0.0934 
     88 H88        25.8085   -1.6307   -9.5318 H         1 UNK         0.0739 
     89 H89        24.4958   -2.6026   -7.1943 H         1 UNK         0.3093 
     90 H90        23.0173    0.4834   -6.2459 H         1 UNK         0.0818 
     91 H91        20.8988   -0.7543   -6.6109 H         1 UNK         0.0819 
     92 H92        21.5745   -0.2514   -8.1503 H         1 UNK         0.0819 
     93 H93        21.7244   -1.9266   -7.6389 H         1 UNK         0.0819 
     94 H94        22.6125   -2.1796   -5.3102 H         1 UNK         0.3041 
     95 H95        23.3246   -2.5948   -3.1144 H         1 UNK         0.0784 
     96 H96        24.6016   -4.0247   -4.6955 H         1 UNK         0.0793 
     97 H97        26.0990   -3.2022   -4.2824 H         1 UNK         0.0793 
     98 H98        25.2958   -4.2348   -3.0975 H         1 UNK         0.0793 
     99 H99        25.5109   -0.8330   -2.4384 H         1 UNK         0.3024 
    100 H100       25.1931   -0.2361   -0.0484 H         1 UNK         0.1171 
    101 H101       25.5050   -0.9969    2.2826 H         1 UNK         0.0786 
    102 H102       24.0189   -1.6592    1.6247 H         1 UNK         0.0786 
    103 H103       25.4394   -2.6847    1.7763 H         1 UNK         0.0786 
    104 H104       27.4819   -1.8553    0.7290 H         1 UNK         0.2977 
    105 H105       26.5135   -0.9877   -6.2313 H         1 UNK         0.3127 
    106 H106       29.3455   -0.7056   -6.4026 H         1 UNK         0.0770 
    107 H107       27.3838    0.8055   -4.5999 H         1 UNK         0.0814 
    108 H108       28.0275   -0.7961   -4.2516 H         1 UNK         0.0814 
    109 H109       29.0998    0.6002   -4.3285 H         1 UNK         0.0814 
    110 H110       26.6730    1.3899   -7.4043 H         1 UNK         0.2983 
    111 H111       28.3451    3.7273   -7.9054 H         1 UNK         0.0947 
    112 H112       25.9259    3.9725   -7.3934 H         1 UNK         0.0806 
    113 H113       25.4995    3.0320   -8.8222 H         1 UNK         0.0806 
    114 H114       26.2760    4.6006   -8.9955 H         1 UNK         0.0806 
    115 H115       27.1403    0.9557   -9.7677 H         1 UNK         0.3000 
    116 H116       27.9373    1.9434  -12.3576 H         1 UNK         0.0850 
    117 H117       27.3168   -0.3347  -13.1219 H         1 UNK         0.0810 
    118 H118       26.0718    0.3152  -12.0682 H         1 UNK         0.0810 
    119 H119       27.2003   -0.8976  -11.4626 H         1 UNK         0.0810 
    120 H120       29.3132   -0.5066  -10.1032 H         1 UNK         0.3040 
    121 H121       31.7127   -0.8531  -11.7694 H         1 UNK         0.0766 
    122 H122       30.7324   -2.1551   -9.1951 H         1 UNK         0.0812 
    123 H123       32.2365   -2.5907  -10.0006 H         1 UNK         0.0812 
    124 H124       30.6984   -2.8388  -10.8109 H         1 UNK         0.0812 
    125 H125       30.8712    1.4873   -9.6107 H         1 UNK         0.3205 
    126 H126       31.8979    3.1418   -8.5969 H         1 UNK         0.0754 
    127 H127       34.0872    3.9054   -9.4255 H         1 UNK         0.0769 
    128 H128       33.1146    3.3329  -10.7695 H         1 UNK         0.0769 
    129 H129       34.4195    2.3319  -10.1331 H         1 UNK         0.0769 
    130 H130       31.5809    1.0447   -6.9814 H         1 UNK         0.2981 
    131 H131       33.9200    1.0192   -5.1405 H         1 UNK         0.0541 
    132 H132       30.8373    2.7350   -5.7222 H         1 UNK         0.3459 
    133 H133       30.9806    3.7421   -4.2974 H         1 UNK         0.3459 
    134 H134       31.2067   -0.3559   -4.8830 H         1 UNK         0.0612 
    135 H135       32.4291   -0.3520   -3.6405 H         1 UNK         0.0612 
    136 H136       32.3189   -3.0431   -7.2851 H         1 UNK         0.0624 
    137 H137       31.4482   -1.5349   -7.1460 H         1 UNK         0.0624 
@<TRIPOS>BOND
     1    1    2 1    
     2    1   72 1    
     3    1   73 1    
     4    1   74 1    
     5    2    3 2    
     6    2    4 am   BACKBONE|DICT|INTERRES
     7    4    5 1    
     8    4   75 1    
     9    5    6 1    
    10    5   35 1    
    11    5   76 1    
    12    6    7 1    
    13    6   77 1    
    14    6   78 1    
    15    7    8 1    
    16    8    9 1    
    17    8   79 1    
    18    8   80 1    
    19    9   10 ar   
    20    9   14 ar   
    21   10   11 ar   
    22   10   81 1    
    23   11   12 ar   
    24   11   71 1    
    25   12   13 ar   
    26   12   82 1    
    27   13   14 ar   
    28   13   15 1    
    29   14   83 1    
    30   15   16 1    
    31   15   84 1    
    32   15   85 1    
    33   16   17 1    
    34   17   18 1    
    35   17   86 1    
    36   17   87 1    
    37   18   19 1    
    38   18   37 1    
    39   18   88 1    
    40   19   20 am   BACKBONE|DICT|INTERRES
    41   19   89 1    
    42   20   21 2    
    43   20   22 1    
    44   22   23 1    
    45   22   24 1    
    46   22   90 1    
    47   23   91 1    
    48   23   92 1    
    49   23   93 1    
    50   24   25 am   BACKBONE|DICT|INTERRES
    51   24   94 1    
    52   25   26 2    
    53   25   27 1    
    54   27   28 1    
    55   27   29 1    
    56   27   95 1    
    57   28   96 1    
    58   28   97 1    
    59   28   98 1    
    60   29   30 am   BACKBONE|DICT|INTERRES
    61   29   99 1    
    62   30   31 2    
    63   30   32 1    
    64   32   33 1    
    65   32   34 1    
    66   32  100 1    
    67   33  101 1    
    68   33  102 1    
    69   33  103 1    
    70   34   35 am   BACKBONE|DICT|INTERRES
    71   34  104 1    
    72   35   36 2    
    73   37   38 2    
    74   37   39 am   BACKBONE|DICT|INTERRES
    75   39   40 1    
    76   39  105 1    
    77   40   41 1    
    78   40   42 1    
    79   40  106 1    
    80   41  107 1    
    81   41  108 1    
    82   41  109 1    
    83   42   43 2    
    84   42   44 am   BACKBONE|DICT|INTERRES
    85   44   45 1    
    86   44  110 1    
    87   45   46 1    
    88   45   47 1    
    89   45  111 1    
    90   46  112 1    
    91   46  113 1    
    92   46  114 1    
    93   47   48 2    
    94   47   49 am   BACKBONE|DICT|INTERRES
    95   49   50 1    
    96   49  115 1    
    97   50   51 1    
    98   50   52 1    
    99   50  116 1    
   100   51  117 1    
   101   51  118 1    
   102   51  119 1    
   103   52   53 2    
   104   52   54 am   BACKBONE|DICT|INTERRES
   105   54   55 1    
   106   54  120 1    
   107   55   56 1    
   108   55   57 1    
   109   55  121 1    
   110   56  122 1    
   111   56  123 1    
   112   56  124 1    
   113   57   58 2    
   114   57   59 am   BACKBONE|DICT|INTERRES
   115   59   60 1    
   116   59  125 1    
   117   60   61 1    
   118   60   62 1    
   119   60  126 1    
   120   61  127 1    
   121   61  128 1    
   122   61  129 1    
   123   62   63 2    
   124   62   64 am   BACKBONE|DICT|INTERRES
   125   64   65 1    
   126   64  130 1    
   127   65   66 1    
   128   65   69 1    
   129   65  131 1    
   130   66   67 am   BACKBONE|DICT|INTERRES
   131   66   68 2    
   132   67  132 1    
   133   67  133 1    
   134   69   70 1    
   135   69  134 1    
   136   69  135 1    
   137   70   71 1    
   138   71  136 1    
   139   71  137 1    
@<TRIPOS>SUBSTRUCTURE
     1 UNK         1 GROUP             0       ****    0 ROOT    
