@<TRIPOS>MOLECULE
3R137
137   139    1
SMALL
USER_CHARGES


@<TRIPOS>ATOM
      1 CA         23.9565   -4.4240   -8.3297 C.3       0 UNK        -0.2020 
      2 C          24.3211   -4.8942   -6.9307 C.2       0 UNK         0.4855 
      3 O          23.6284   -5.7405   -6.3639 O.2       0 UNK        -0.5197 
      4 N          25.4139   -4.3549   -6.3758 N.am      1 UNK        -0.4892 
      5 CA         25.8642   -4.6182   -5.0052 C.3       1 UNK         0.0835 
      6 C6         27.3579   -4.2399   -4.8203 C.3       12 UNK        -0.0855 
      7 S7         28.1450   -5.2634   -3.5311 S.3       12 UNK        -0.2931 
      8 C8         29.9096   -5.1462   -3.9824 C.3       12 UNK         0.0378 
      9 C9         30.6302   -3.8674   -3.5485 C.ar      12 UNK        -0.0802 
     10 C10        31.8991   -3.6193   -4.0809 C.ar      12 UNK        -0.0944 
     11 C11        32.6386   -2.5012   -3.6878 C.ar      12 UNK        -0.0787 
     12 C12        32.0993   -1.6144   -2.7539 C.ar      12 UNK        -0.0862 
     13 C13        30.8331   -1.8439   -2.2091 C.ar      12 UNK        -0.0733 
     14 C14        30.1041   -2.9697   -2.6073 C.ar      12 UNK        -0.0832 
     15 C15        30.2732   -0.8979   -1.1558 C.3       12 UNK         0.0240 
     16 S16        28.8416    0.0512   -1.7554 S.3       12 UNK        -0.2522 
     17 C17        29.5606    1.0359   -3.1136 C.3       12 UNK        -0.0967 
     18 CA         29.0234    0.5944   -4.4973 C.3       5 UNK         0.0660 
     19 N          27.5604    0.6173   -4.5579 N.am      5 UNK        -0.4015 
     20 C          26.7992    0.1738   -5.5642 C.2       4 UNK         0.4946 
     21 O          27.2558   -0.2895   -6.6140 O.2       4 UNK        -0.5353 
     22 CA         25.2735    0.2958   -5.3698 C.3       4 UNK         0.0277 
     23 CB         24.4773   -0.4679   -6.4438 C.3       4 UNK        -0.1981 
     24 N          24.8188   -0.1263   -4.0371 N.am      4 UNK        -0.4209 
     25 C          24.8849    0.6271   -2.9272 C.2       3 UNK         0.4942 
     26 O          25.4354    1.7289   -2.9052 O.2       3 UNK        -0.5208 
     27 CA         24.2416    0.1008   -1.6306 C.3       3 UNK         0.0250 
     28 CB         22.9332    0.8561   -1.3433 C.3       3 UNK        -0.1990 
     29 N          23.9604   -1.3345   -1.6580 N.am      3 UNK        -0.4232 
     30 C          24.8464   -2.2904   -1.3518 C.2       2 UNK         0.4993 
     31 O          25.9927   -2.0666   -0.9637 O.2       2 UNK        -0.5286 
     32 CA         24.3964   -3.7526   -1.5334 C.3       2 UNK         0.0209 
     33 CB         22.8626   -3.9473   -1.5819 C.3       2 UNK        -0.1931 
     34 N          25.0381   -4.3489   -2.7105 N.am      2 UNK        -0.4546 
     35 C          24.9665   -3.9015   -3.9724 C.2       1 UNK         0.5154 
     36 O          24.2655   -2.9456   -4.3171 O.2       1 UNK        -0.5181 
     37 C          29.6413    1.4426   -5.6220 C.2       5 UNK         0.5014 
     38 O          30.4871    0.9500   -6.3648 O.2       5 UNK        -0.5248 
     39 N          29.1830    2.6931   -5.7570 N.am      6 UNK        -0.4434 
     40 CA         29.5880    3.5836   -6.8456 C.3       6 UNK         0.0363 
     41 CB         29.4914    5.0431   -6.3745 C.3       6 UNK        -0.1936 
     42 C          28.7476    3.3715   -8.1147 C.2       6 UNK         0.5081 
     43 O          29.2673    3.5517   -9.2149 O.2       6 UNK        -0.5248 
     44 N          27.4651    3.0220   -7.9436 N.am      7 UNK        -0.4718 
     45 CA         26.4840    2.9558   -9.0281 C.3       7 UNK         0.0273 
     46 CB         25.0643    3.0521   -8.4466 C.3       7 UNK        -0.1935 
     47 C          26.6224    1.7205   -9.9319 C.2       7 UNK         0.5018 
     48 O          26.4366    1.8569  -11.1421 O.2       7 UNK        -0.5186 
     49 N          26.9195    0.5509   -9.3477 N.am      8 UNK        -0.4240 
     50 CA         27.0097   -0.7210  -10.0700 C.3       8 UNK         0.0235 
     51 CB         25.9744   -1.7155   -9.5210 C.3       8 UNK        -0.2000 
     52 C          28.4185   -1.3151   -9.9959 C.2       8 UNK         0.4941 
     53 O          28.9530   -1.7026  -11.0356 O.2       8 UNK        -0.5273 
     54 N          29.0005   -1.3876   -8.7883 N.am      9 UNK        -0.4262 
     55 CA         30.3302   -1.9784   -8.5805 C.3       9 UNK         0.0264 
     56 CB         30.4954   -2.4026   -7.1122 C.3       9 UNK        -0.1955 
     57 C          31.4903   -1.0760   -9.0479 C.2       9 UNK         0.5031 
     58 O          32.5829   -1.5909   -9.2900 O.2       9 UNK        -0.5390 
     59 N          31.2266    0.2330   -9.1882 N.am      10 UNK        -0.4204 
     60 CA         32.1456    1.2980   -9.6135 C.3       10 UNK         0.0237 
     61 CB         32.5929    1.0917  -11.0766 C.3       10 UNK        -0.1985 
     62 C          33.3257    1.5122   -8.6436 C.2       10 UNK         0.4970 
     63 O          34.4223    1.8720   -9.0761 O.2       10 UNK        -0.4914 
     64 N          33.0712    1.3047   -7.3478 N.am      11 UNK        -0.4285 
     65 CA         34.0350    1.4432   -6.2469 C.3       11 UNK         0.1007 
     66 C          34.1087    2.8793   -5.6504 C.2       11 UNK         0.5703 
     67 N          33.3840    3.8612   -6.1741 N.am      11 UNK        -0.7361 
     68 O          34.8534    3.1151   -4.7019 O.2       11 UNK        -0.4986 
     69 C69        33.7733    0.3765   -5.1515 C.3       12 UNK        -0.0947 
     70 S70        33.9946   -1.3173   -5.7895 S.3       12 UNK        -0.2240 
     71 C71        34.0346   -2.2767   -4.2480 C.3       12 UNK         0.0194 
     72 H72        23.1069   -4.9861   -8.7172 H         1 UNK         0.0906 
     73 H73        23.6859   -3.3684   -8.3186 H         1 UNK         0.0906 
     74 H74        24.7927   -4.5659   -9.0135 H         1 UNK         0.0906 
     75 H75        25.9260   -3.6446   -6.8767 H         1 UNK         0.3140 
     76 H76        25.7531   -5.6932   -4.8420 H         1 UNK         0.1085 
     77 H77        27.4913   -3.1799   -4.5906 H         1 UNK         0.0836 
     78 H78        27.8997   -4.4149   -5.7509 H         1 UNK         0.0836 
     79 H79        30.4255   -5.9903   -3.5229 H         1 UNK         0.0731 
     80 H80        30.0113   -5.2800   -5.0605 H         1 UNK         0.0731 
     81 H81        32.3233   -4.3100   -4.7972 H         1 UNK         0.1312 
     82 H82        32.6742   -0.7536   -2.4410 H         1 UNK         0.1406 
     83 H83        29.1330   -3.1401   -2.1639 H         1 UNK         0.1631 
     84 H84        31.0389   -0.2042   -0.8049 H         1 UNK         0.0717 
     85 H85        29.9664   -1.4779   -0.2842 H         1 UNK         0.0717 
     86 H86        30.6492    0.9618   -3.0838 H         1 UNK         0.0934 
     87 H87        29.3259    2.0843   -2.9201 H         1 UNK         0.0934 
     88 H88        29.3326   -0.4399   -4.6615 H         1 UNK         0.0739 
     89 H89        27.0823    0.9944   -3.7457 H         1 UNK         0.3093 
     90 H90        25.0328    1.3544   -5.4853 H         1 UNK         0.0818 
     91 H91        23.4030   -0.3730   -6.2865 H         1 UNK         0.0819 
     92 H92        24.6898   -0.0844   -7.4409 H         1 UNK         0.0819 
     93 H93        24.7216   -1.5290   -6.4478 H         1 UNK         0.0819 
     94 H94        24.4346   -1.0668   -3.9790 H         1 UNK         0.3041 
     95 H95        24.9386    0.3111   -0.8162 H         1 UNK         0.0784 
     96 H96        23.1080    1.9312   -1.2805 H         1 UNK         0.0793 
     97 H97        22.1907    0.6920   -2.1254 H         1 UNK         0.0793 
     98 H98        22.4962    0.5457   -0.3939 H         1 UNK         0.0793 
     99 H99        23.0529   -1.6167   -2.0001 H         1 UNK         0.3024 
    100 H100       24.7691   -4.2933   -0.6615 H         1 UNK         0.1171 
    101 H101       22.6079   -5.0071   -1.5969 H         1 UNK         0.0786 
    102 H102       22.4069   -3.4926   -2.4620 H         1 UNK         0.0786 
    103 H103       22.3839   -3.5185   -0.7003 H         1 UNK         0.0786 
    104 H104       25.6951   -5.0933   -2.5162 H         1 UNK         0.2977 
    105 H105       28.4959    3.0396   -5.1032 H         1 UNK         0.3127 
    106 H106       30.6295    3.3870   -7.1061 H         1 UNK         0.0770 
    107 H107       28.4726    5.3148   -6.0952 H         1 UNK         0.0814 
    108 H108       29.8065    5.7283   -7.1628 H         1 UNK         0.0814 
    109 H109       30.1359    5.2242   -5.5141 H         1 UNK         0.0814 
    110 H110       27.1220    2.8903   -7.0052 H         1 UNK         0.2983 
    111 H111       26.6339    3.8310   -9.6653 H         1 UNK         0.0947 
    112 H112       24.3153    3.0188   -9.2393 H         1 UNK         0.0806 
    113 H113       24.9195    3.9888   -7.9080 H         1 UNK         0.0806 
    114 H114       24.8471    2.2349   -7.7615 H         1 UNK         0.0806 
    115 H115       27.0668    0.5115   -8.3432 H         1 UNK         0.3000 
    116 H116       26.7853   -0.5758  -11.1289 H         1 UNK         0.0850 
    117 H117       26.0145   -2.6561  -10.0716 H         1 UNK         0.0810 
    118 H118       24.9612   -1.3263   -9.6204 H         1 UNK         0.0810 
    119 H119       26.1476   -1.9444   -8.4700 H         1 UNK         0.0810 
    120 H120       28.4981   -1.0596   -7.9675 H         1 UNK         0.3040 
    121 H121       30.3870   -2.8894   -9.1805 H         1 UNK         0.0766 
    122 H122       31.4559   -2.8964   -6.9605 H         1 UNK         0.0812 
    123 H123       29.7199   -3.1052   -6.8099 H         1 UNK         0.0812 
    124 H124       30.4631   -1.5568   -6.4301 H         1 UNK         0.0812 
    125 H125       30.3067    0.5390   -8.9041 H         1 UNK         0.3205 
    126 H126       31.5681    2.2220   -9.5809 H         1 UNK         0.0754 
    127 H127       33.1494    1.9557  -11.4417 H         1 UNK         0.0769 
    128 H128       31.7361    0.9573  -11.7370 H         1 UNK         0.0769 
    129 H129       33.2394    0.2202  -11.1838 H         1 UNK         0.0769 
    130 H130       32.1276    1.0417   -7.0668 H         1 UNK         0.2981 
    131 H131       35.0338    1.2547   -6.6446 H         1 UNK         0.0541 
    132 H132       32.8010    3.6901   -6.9750 H         1 UNK         0.3459 
    133 H133       33.4523    4.7866   -5.7815 H         1 UNK         0.3459 
    134 H134       32.7627    0.4753   -4.7523 H         1 UNK         0.0612 
    135 H135       34.4570    0.5097   -4.3113 H         1 UNK         0.0612 
    136 H136       34.5077   -3.2386   -4.4509 H         1 UNK         0.0624 
    137 H137       34.6693   -1.7775   -3.5143 H         1 UNK         0.0624 
@<TRIPOS>BOND
     1    1    2 1    
     2    1   72 1    
     3    1   73 1    
     4    1   74 1    
     5    2    3 2    
     6    2    4 am   BACKBONE|DICT|INTERRES
     7    4    5 1    
     8    4   75 1    
     9    5    6 1    
    10    5   35 1    
    11    5   76 1    
    12    6    7 1    
    13    6   77 1    
    14    6   78 1    
    15    7    8 1    
    16    8    9 1    
    17    8   79 1    
    18    8   80 1    
    19    9   10 ar   
    20    9   14 ar   
    21   10   11 ar   
    22   10   81 1    
    23   11   12 ar   
    24   11   71 1    
    25   12   13 ar   
    26   12   82 1    
    27   13   14 ar   
    28   13   15 1    
    29   14   83 1    
    30   15   16 1    
    31   15   84 1    
    32   15   85 1    
    33   16   17 1    
    34   17   18 1    
    35   17   86 1    
    36   17   87 1    
    37   18   19 1    
    38   18   37 1    
    39   18   88 1    
    40   19   20 am   BACKBONE|DICT|INTERRES
    41   19   89 1    
    42   20   21 2    
    43   20   22 1    
    44   22   23 1    
    45   22   24 1    
    46   22   90 1    
    47   23   91 1    
    48   23   92 1    
    49   23   93 1    
    50   24   25 am   BACKBONE|DICT|INTERRES
    51   24   94 1    
    52   25   26 2    
    53   25   27 1    
    54   27   28 1    
    55   27   29 1    
    56   27   95 1    
    57   28   96 1    
    58   28   97 1    
    59   28   98 1    
    60   29   30 am   BACKBONE|DICT|INTERRES
    61   29   99 1    
    62   30   31 2    
    63   30   32 1    
    64   32   33 1    
    65   32   34 1    
    66   32  100 1    
    67   33  101 1    
    68   33  102 1    
    69   33  103 1    
    70   34   35 am   BACKBONE|DICT|INTERRES
    71   34  104 1    
    72   35   36 2    
    73   37   38 2    
    74   37   39 am   BACKBONE|DICT|INTERRES
    75   39   40 1    
    76   39  105 1    
    77   40   41 1    
    78   40   42 1    
    79   40  106 1    
    80   41  107 1    
    81   41  108 1    
    82   41  109 1    
    83   42   43 2    
    84   42   44 am   BACKBONE|DICT|INTERRES
    85   44   45 1    
    86   44  110 1    
    87   45   46 1    
    88   45   47 1    
    89   45  111 1    
    90   46  112 1    
    91   46  113 1    
    92   46  114 1    
    93   47   48 2    
    94   47   49 am   BACKBONE|DICT|INTERRES
    95   49   50 1    
    96   49  115 1    
    97   50   51 1    
    98   50   52 1    
    99   50  116 1    
   100   51  117 1    
   101   51  118 1    
   102   51  119 1    
   103   52   53 2    
   104   52   54 am   BACKBONE|DICT|INTERRES
   105   54   55 1    
   106   54  120 1    
   107   55   56 1    
   108   55   57 1    
   109   55  121 1    
   110   56  122 1    
   111   56  123 1    
   112   56  124 1    
   113   57   58 2    
   114   57   59 am   BACKBONE|DICT|INTERRES
   115   59   60 1    
   116   59  125 1    
   117   60   61 1    
   118   60   62 1    
   119   60  126 1    
   120   61  127 1    
   121   61  128 1    
   122   61  129 1    
   123   62   63 2    
   124   62   64 am   BACKBONE|DICT|INTERRES
   125   64   65 1    
   126   64  130 1    
   127   65   66 1    
   128   65   69 1    
   129   65  131 1    
   130   66   67 am   BACKBONE|DICT|INTERRES
   131   66   68 2    
   132   67  132 1    
   133   67  133 1    
   134   69   70 1    
   135   69  134 1    
   136   69  135 1    
   137   70   71 1    
   138   71  136 1    
   139   71  137 1    
@<TRIPOS>SUBSTRUCTURE
     1 UNK         1 GROUP             0       ****    0 ROOT    
