@<TRIPOS>MOLECULE
3R137
137   139    1
SMALL
USER_CHARGES


@<TRIPOS>ATOM
      1 CA         28.9175    0.2118    0.8040 C.3       0 UNK        -0.2020 
      2 C          28.1889   -0.5250   -0.3090 C.2       0 UNK         0.4855 
      3 O          26.9645   -0.6492   -0.2587 O.2       0 UNK        -0.5197 
      4 N          28.9294   -0.9899   -1.3280 N.am      1 UNK        -0.4892 
      5 CA         28.4512   -1.8030   -2.4638 C.3       1 UNK         0.0835 
      6 C6         28.0143   -3.2305   -2.0296 C.3       12 UNK        -0.0855 
      7 S7         29.3863   -4.1564   -1.2566 S.3       12 UNK        -0.2931 
      8 C8         29.8449   -5.3294   -2.5733 C.3       12 UNK         0.0378 
      9 C9         30.3263   -4.6230   -3.8335 C.ar      12 UNK        -0.0802 
     10 C10        31.6194   -4.0949   -3.8992 C.ar      12 UNK        -0.0944 
     11 C11        32.0663   -3.4560   -5.0606 C.ar      12 UNK        -0.0787 
     12 C12        31.2074   -3.3402   -6.1589 C.ar      12 UNK        -0.0862 
     13 C13        29.9118   -3.8611   -6.1013 C.ar      12 UNK        -0.0733 
     14 C14        29.4801   -4.5073   -4.9401 C.ar      12 UNK        -0.0832 
     15 C15        28.9691   -3.7357   -7.2862 C.3       12 UNK         0.0240 
     16 S16        27.7796   -2.3903   -7.0130 S.3       12 UNK        -0.2522 
     17 C17        26.2957   -3.0445   -7.8476 C.3       12 UNK        -0.0967 
     18 CA         24.9886   -2.2985   -7.4768 C.3       5 UNK         0.0660 
     19 N          24.6710   -2.4472   -6.0479 N.am      5 UNK        -0.4015 
     20 C          23.5409   -3.0054   -5.5876 C.2       4 UNK         0.4946 
     21 O          22.5667   -3.2672   -6.2948 O.2       4 UNK        -0.5353 
     22 CA         23.4871   -3.3703   -4.0971 C.3       4 UNK         0.0277 
     23 CB         24.4563   -4.5244   -3.7838 C.3       4 UNK        -0.1981 
     24 N          23.8055   -2.2217   -3.2533 N.am      4 UNK        -0.4209 
     25 C          22.9089   -1.5074   -2.5567 C.2       3 UNK         0.4942 
     26 O          21.7033   -1.7592   -2.5308 O.2       3 UNK        -0.5208 
     27 CA         23.4313   -0.3082   -1.7388 C.3       3 UNK         0.0250 
     28 CB         23.5677   -0.6908   -0.2564 C.3       3 UNK        -0.1990 
     29 N          24.7118    0.2163   -2.2198 N.am      3 UNK        -0.4232 
     30 C          24.8807    0.8072   -3.4127 C.2       2 UNK         0.4993 
     31 O          23.9525    1.0605   -4.1785 O.2       2 UNK        -0.5286 
     32 CA         26.3214    1.1089   -3.8647 C.3       2 UNK         0.0209 
     33 CB         26.6708    2.5813   -3.6000 C.3       2 UNK        -0.1931 
     34 N          27.3322    0.2490   -3.2432 N.am      2 UNK        -0.4546 
     35 C          27.3658   -1.0914   -3.3059 C.2       1 UNK         0.5154 
     36 O          26.5512   -1.7496   -3.9574 O.2       1 UNK        -0.5181 
     37 C          24.9716   -0.8386   -7.9797 C.2       5 UNK         0.5014 
     38 O          25.2538   -0.6189   -9.1603 O.2       5 UNK        -0.5248 
     39 N          24.6234    0.1290   -7.1163 N.am      6 UNK        -0.4434 
     40 CA         24.5113    1.5628   -7.4175 C.3       6 UNK         0.0363 
     41 CB         23.2620    1.8286   -8.2899 C.3       6 UNK        -0.1936 
     42 C          25.8210    2.1509   -7.9831 C.2       6 UNK         0.5081 
     43 O          26.8683    2.0106   -7.3503 O.2       6 UNK        -0.5248 
     44 N          25.7489    2.7906   -9.1584 N.am      7 UNK        -0.4718 
     45 CA         26.8543    3.4769   -9.8365 C.3       7 UNK         0.0273 
     46 CB         26.2988    4.2184  -11.0637 C.3       7 UNK        -0.1935 
     47 C          28.0383    2.5780  -10.2422 C.2       7 UNK         0.5018 
     48 O          29.1144    3.1076  -10.5221 O.2       7 UNK        -0.5186 
     49 N          27.8423    1.2513  -10.2607 N.am      8 UNK        -0.4240 
     50 CA         28.8966    0.2682  -10.5219 C.3       8 UNK         0.0235 
     51 CB         28.2577   -1.0870  -10.8560 C.3       8 UNK        -0.2000 
     52 C          29.9030    0.1206   -9.3650 C.2       8 UNK         0.4941 
     53 O          30.9862   -0.4236   -9.5885 O.2       8 UNK        -0.5273 
     54 N          29.5684    0.6144   -8.1628 N.am      9 UNK        -0.4262 
     55 CA         30.4037    0.5642   -6.9580 C.3       9 UNK         0.0264 
     56 CB         29.5091    0.7690   -5.7257 C.3       9 UNK        -0.1955 
     57 C          31.5913    1.5506   -6.9861 C.2       9 UNK         0.5031 
     58 O          31.7974    2.2962   -6.0261 O.2       9 UNK        -0.5390 
     59 N          32.3603    1.5378   -8.0816 N.am      10 UNK        -0.4204 
     60 CA         33.6267    2.2591   -8.2207 C.3       10 UNK         0.0237 
     61 CB         33.9932    2.3806   -9.7089 C.3       10 UNK        -0.1985 
     62 C          34.7451    1.5629   -7.4287 C.2       10 UNK         0.4970 
     63 O          35.5091    2.2365   -6.7370 O.2       10 UNK        -0.4914 
     64 N          34.7881    0.2264   -7.5325 N.am      11 UNK        -0.4285 
     65 CA         35.6532   -0.6907   -6.7695 C.3       11 UNK         0.1007 
     66 C          37.1851   -0.5219   -7.0107 C.2       11 UNK         0.5703 
     67 N          37.6148    0.1051   -8.0995 N.am      11 UNK        -0.7361 
     68 O          38.0006   -0.9953   -6.2223 O.2       11 UNK        -0.4986 
     69 C69        35.2764   -0.7561   -5.2590 C.3       12 UNK        -0.0947 
     70 S70        33.5059   -1.1004   -4.9706 S.3       12 UNK        -0.2240 
     71 C71        33.4828   -2.9094   -5.1406 C.3       12 UNK         0.0194 
     72 H72        28.5377    1.2294    0.8917 H         1 UNK         0.0906 
     73 H73        28.7557   -0.2952    1.7548 H         1 UNK         0.0906 
     74 H74        29.9914    0.2635    0.6260 H         1 UNK         0.0906 
     75 H75        29.9296   -0.8440   -1.3062 H         1 UNK         0.3140 
     76 H76        29.2992   -1.9115   -3.1426 H         1 UNK         0.1085 
     77 H77        27.1872   -3.1790   -1.3195 H         1 UNK         0.0836 
     78 H78        27.6382   -3.8048   -2.8764 H         1 UNK         0.0836 
     79 H79        28.9934   -5.9757   -2.7926 H         1 UNK         0.0731 
     80 H80        30.6341   -5.9848   -2.2019 H         1 UNK         0.0731 
     81 H81        32.2770   -4.1847   -3.0452 H         1 UNK         0.1312 
     82 H82        31.5486   -2.8431   -7.0570 H         1 UNK         0.1406 
     83 H83        28.4774   -4.9109   -4.8991 H         1 UNK         0.1631 
     84 H84        28.4487   -4.6832   -7.4310 H         1 UNK         0.0717 
     85 H85        29.5211   -3.5418   -8.2072 H         1 UNK         0.0717 
     86 H86        26.4546   -3.0362   -8.9265 H         1 UNK         0.0934 
     87 H87        26.1841   -4.0968   -7.5818 H         1 UNK         0.0934 
     88 H88        24.2044   -2.7809   -8.0635 H         1 UNK         0.0739 
     89 H89        25.4316   -2.2517   -5.3994 H         1 UNK         0.3093 
     90 H90        22.4770   -3.7252   -3.8809 H         1 UNK         0.0818 
     91 H91        25.4930   -4.2602   -3.9929 H         1 UNK         0.0819 
     92 H92        24.3929   -4.8194   -2.7363 H         1 UNK         0.0819 
     93 H93        24.2189   -5.4045   -4.3827 H         1 UNK         0.0819 
     94 H94        24.7770   -1.9261   -3.2538 H         1 UNK         0.3041 
     95 H95        22.6905    0.4901   -1.8200 H         1 UNK         0.0784 
     96 H96        22.6159   -1.0393    0.1471 H         1 UNK         0.0793 
     97 H97        24.2958   -1.4904   -0.1128 H         1 UNK         0.0793 
     98 H98        23.8832    0.1608    0.3467 H         1 UNK         0.0793 
     99 H99        25.5262    0.0269   -1.6431 H         1 UNK         0.3024 
    100 H100       26.3669    0.9320   -4.9407 H         1 UNK         0.1171 
    101 H101       27.6552    2.8343   -3.9934 H         1 UNK         0.0786 
    102 H102       25.9527    3.2441   -4.0853 H         1 UNK         0.0786 
    103 H103       26.6629    2.8134   -2.5343 H         1 UNK         0.0786 
    104 H104       28.0228    0.7049   -2.6647 H         1 UNK         0.2977 
    105 H105       24.4037   -0.1306   -6.1640 H         1 UNK         0.3127 
    106 H106       24.3539    2.0759   -6.4696 H         1 UNK         0.0770 
    107 H107       23.3353    1.3598   -9.2720 H         1 UNK         0.0814 
    108 H108       23.0992    2.8970   -8.4376 H         1 UNK         0.0814 
    109 H109       22.3646    1.4391   -7.8090 H         1 UNK         0.0814 
    110 H110       24.8503    2.8283   -9.6178 H         1 UNK         0.2983 
    111 H111       27.2511    4.2184   -9.1397 H         1 UNK         0.0947 
    112 H112       27.0862    4.7733  -11.5762 H         1 UNK         0.0806 
    113 H113       25.5320    4.9397  -10.7802 H         1 UNK         0.0806 
    114 H114       25.8628    3.5290  -11.7879 H         1 UNK         0.0806 
    115 H115       26.9324    0.8907   -9.9995 H         1 UNK         0.3000 
    116 H116       29.4601    0.5995  -11.3969 H         1 UNK         0.0850 
    117 H117       29.0177   -1.8291  -11.1041 H         1 UNK         0.0810 
    118 H118       27.5834   -1.0124  -11.7092 H         1 UNK         0.0810 
    119 H119       27.6903   -1.4723  -10.0113 H         1 UNK         0.0810 
    120 H120       28.6656    1.0655   -8.0572 H         1 UNK         0.3040 
    121 H121       30.8294   -0.4385   -6.8862 H         1 UNK         0.0766 
    122 H122       28.6794    0.0649   -5.7240 H         1 UNK         0.0812 
    123 H123       29.0905    1.7753   -5.6975 H         1 UNK         0.0812 
    124 H124       30.0695    0.6162   -4.8027 H         1 UNK         0.0812 
    125 H125       32.0954    0.8902   -8.8205 H         1 UNK         0.3205 
    126 H126       33.5021    3.2661   -7.8164 H         1 UNK         0.0754 
    127 H127       34.9320    2.9215   -9.8361 H         1 UNK         0.0769 
    128 H128       33.2277    2.9283  -10.2592 H         1 UNK         0.0769 
    129 H129       34.1102    1.4050  -10.1825 H         1 UNK         0.0769 
    130 H130       34.1249   -0.2229   -8.1453 H         1 UNK         0.2981 
    131 H131       35.4411   -1.6752   -7.1861 H         1 UNK         0.0541 
    132 H132       38.6059    0.2006   -8.2553 H         1 UNK         0.3459 
    133 H133       36.9592    0.4914   -8.7591 H         1 UNK         0.3459 
    134 H134       35.5197    0.1882   -4.7695 H         1 UNK         0.0612 
    135 H135       35.8603   -1.5218   -4.7453 H         1 UNK         0.0612 
    136 H136       33.9236   -3.1934   -6.0968 H         1 UNK         0.0624 
    137 H137       34.1109   -3.3513   -4.3655 H         1 UNK         0.0624 
@<TRIPOS>BOND
     1    1    2 1    
     2    1   72 1    
     3    1   73 1    
     4    1   74 1    
     5    2    3 2    
     6    2    4 am   BACKBONE|DICT|INTERRES
     7    4    5 1    
     8    4   75 1    
     9    5    6 1    
    10    5   35 1    
    11    5   76 1    
    12    6    7 1    
    13    6   77 1    
    14    6   78 1    
    15    7    8 1    
    16    8    9 1    
    17    8   79 1    
    18    8   80 1    
    19    9   10 ar   
    20    9   14 ar   
    21   10   11 ar   
    22   10   81 1    
    23   11   12 ar   
    24   11   71 1    
    25   12   13 ar   
    26   12   82 1    
    27   13   14 ar   
    28   13   15 1    
    29   14   83 1    
    30   15   16 1    
    31   15   84 1    
    32   15   85 1    
    33   16   17 1    
    34   17   18 1    
    35   17   86 1    
    36   17   87 1    
    37   18   19 1    
    38   18   37 1    
    39   18   88 1    
    40   19   20 am   BACKBONE|DICT|INTERRES
    41   19   89 1    
    42   20   21 2    
    43   20   22 1    
    44   22   23 1    
    45   22   24 1    
    46   22   90 1    
    47   23   91 1    
    48   23   92 1    
    49   23   93 1    
    50   24   25 am   BACKBONE|DICT|INTERRES
    51   24   94 1    
    52   25   26 2    
    53   25   27 1    
    54   27   28 1    
    55   27   29 1    
    56   27   95 1    
    57   28   96 1    
    58   28   97 1    
    59   28   98 1    
    60   29   30 am   BACKBONE|DICT|INTERRES
    61   29   99 1    
    62   30   31 2    
    63   30   32 1    
    64   32   33 1    
    65   32   34 1    
    66   32  100 1    
    67   33  101 1    
    68   33  102 1    
    69   33  103 1    
    70   34   35 am   BACKBONE|DICT|INTERRES
    71   34  104 1    
    72   35   36 2    
    73   37   38 2    
    74   37   39 am   BACKBONE|DICT|INTERRES
    75   39   40 1    
    76   39  105 1    
    77   40   41 1    
    78   40   42 1    
    79   40  106 1    
    80   41  107 1    
    81   41  108 1    
    82   41  109 1    
    83   42   43 2    
    84   42   44 am   BACKBONE|DICT|INTERRES
    85   44   45 1    
    86   44  110 1    
    87   45   46 1    
    88   45   47 1    
    89   45  111 1    
    90   46  112 1    
    91   46  113 1    
    92   46  114 1    
    93   47   48 2    
    94   47   49 am   BACKBONE|DICT|INTERRES
    95   49   50 1    
    96   49  115 1    
    97   50   51 1    
    98   50   52 1    
    99   50  116 1    
   100   51  117 1    
   101   51  118 1    
   102   51  119 1    
   103   52   53 2    
   104   52   54 am   BACKBONE|DICT|INTERRES
   105   54   55 1    
   106   54  120 1    
   107   55   56 1    
   108   55   57 1    
   109   55  121 1    
   110   56  122 1    
   111   56  123 1    
   112   56  124 1    
   113   57   58 2    
   114   57   59 am   BACKBONE|DICT|INTERRES
   115   59   60 1    
   116   59  125 1    
   117   60   61 1    
   118   60   62 1    
   119   60  126 1    
   120   61  127 1    
   121   61  128 1    
   122   61  129 1    
   123   62   63 2    
   124   62   64 am   BACKBONE|DICT|INTERRES
   125   64   65 1    
   126   64  130 1    
   127   65   66 1    
   128   65   69 1    
   129   65  131 1    
   130   66   67 am   BACKBONE|DICT|INTERRES
   131   66   68 2    
   132   67  132 1    
   133   67  133 1    
   134   69   70 1    
   135   69  134 1    
   136   69  135 1    
   137   70   71 1    
   138   71  136 1    
   139   71  137 1    
@<TRIPOS>SUBSTRUCTURE
     1 UNK         1 GROUP             0       ****    0 ROOT    
