@<TRIPOS>MOLECULE
3R137
137   139    1
SMALL
USER_CHARGES


@<TRIPOS>ATOM
      1 CA         28.0352   -4.1470    2.2908 C.3       0 UNK        -0.2020 
      2 C          27.4537   -2.8903    1.6607 C.2       0 UNK         0.4855 
      3 O          26.6835   -2.1812    2.3084 O.2       0 UNK        -0.5197 
      4 N          27.8194   -2.6091    0.4029 N.am      1 UNK        -0.4892 
      5 CA         27.3553   -1.4456   -0.3673 C.3       1 UNK         0.0835 
      6 C6         28.2138   -1.1981   -1.6328 C.3       12 UNK        -0.0855 
      7 S7         29.9724   -0.8863   -1.2494 S.3       12 UNK        -0.2931 
      8 C8         30.7477   -2.5136   -1.5166 C.3       12 UNK         0.0378 
      9 C9         30.8550   -2.8823   -2.9900 C.ar      12 UNK        -0.0802 
     10 C10        31.9576   -2.4629   -3.7397 C.ar      12 UNK        -0.0944 
     11 C11        32.1063   -2.8509   -5.0787 C.ar      12 UNK        -0.0787 
     12 C12        31.1196   -3.6555   -5.6629 C.ar      12 UNK        -0.0862 
     13 C13        30.0140   -4.0876   -4.9216 C.ar      12 UNK        -0.0733 
     14 C14        29.8908   -3.6989   -3.5858 C.ar      12 UNK        -0.0832 
     15 C15        28.9915   -5.0401   -5.5308 C.3       12 UNK         0.0240 
     16 S16        27.8988   -4.2482   -6.7521 S.3       12 UNK        -0.2522 
     17 C17        26.9461   -3.0577   -5.7436 C.3       12 UNK        -0.0967 
     18 CA         26.7427   -1.7158   -6.4893 C.3       5 UNK         0.0660 
     19 N          25.6078   -0.9420   -5.9664 N.am      5 UNK        -0.4015 
     20 C          25.1344    0.1840   -6.5323 C.2       4 UNK         0.4946 
     21 O          25.6632    0.7268   -7.5042 O.2       4 UNK        -0.5353 
     22 CA         23.8567    0.7954   -5.9362 C.3       4 UNK         0.0277 
     23 CB         23.1276    1.7380   -6.9135 C.3       4 UNK        -0.1981 
     24 N          22.9574   -0.2746   -5.5180 N.am      4 UNK        -0.4209 
     25 C          22.2654   -0.2988   -4.3761 C.2       3 UNK         0.4942 
     26 O          22.1669    0.6575   -3.6054 O.2       3 UNK        -0.5208 
     27 CA         21.6122   -1.6404   -3.9945 C.3       3 UNK         0.0250 
     28 CB         21.5176   -2.6584   -5.1557 C.3       3 UNK        -0.1990 
     29 N          22.2950   -2.2444   -2.8442 N.am      3 UNK        -0.4232 
     30 C          23.6050   -2.5158   -2.7284 C.2       2 UNK         0.4993 
     31 O          24.4411   -2.3333   -3.6211 O.2       2 UNK        -0.5286 
     32 CA         24.0371   -3.1364   -1.3886 C.3       2 UNK         0.0209 
     33 CB         23.9045   -4.6672   -1.4451 C.3       2 UNK        -0.1931 
     34 N          25.4119   -2.7968   -1.0179 N.am      2 UNK        -0.4546 
     35 C          25.8643   -1.5632   -0.7475 C.2       1 UNK         0.5154 
     36 O          25.1601   -0.5525   -0.7649 O.2       1 UNK        -0.5181 
     37 C          28.0475   -0.8990   -6.5824 C.2       5 UNK         0.5014 
     38 O          28.7638   -1.0281   -7.5745 O.2       5 UNK        -0.5248 
     39 N          28.2971   -0.0239   -5.5963 N.am      6 UNK        -0.4434 
     40 CA         29.4447    0.8870   -5.5837 C.3       6 UNK         0.0363 
     41 CB         29.4808    1.6716   -4.2645 C.3       6 UNK        -0.1936 
     42 C          29.4692    1.8552   -6.7792 C.2       6 UNK         0.5081 
     43 O          30.5415    2.1152   -7.3239 O.2       6 UNK        -0.5248 
     44 N          28.2913    2.3494   -7.1823 N.am      7 UNK        -0.4718 
     45 CA         28.1259    3.2044   -8.3561 C.3       7 UNK         0.0273 
     46 CB         26.8076    3.9883   -8.2500 C.3       7 UNK        -0.1935 
     47 C          28.1791    2.3877   -9.6544 C.2       7 UNK         0.5018 
     48 O          28.8860    2.7811  -10.5818 O.2       7 UNK        -0.5186 
     49 N          27.4548    1.2591   -9.6880 N.am      8 UNK        -0.4240 
     50 CA         27.3471    0.3644  -10.8446 C.3       8 UNK         0.0235 
     51 CB         26.3005   -0.7240  -10.5599 C.3       8 UNK        -0.2000 
     52 C          28.6854   -0.2666  -11.2638 C.2       8 UNK         0.4941 
     53 O          28.9723   -0.3301  -12.4598 O.2       8 UNK        -0.5273 
     54 N          29.4875   -0.6986  -10.2816 N.am      9 UNK        -0.4262 
     55 CA         30.8252   -1.2570  -10.4920 C.3       9 UNK         0.0264 
     56 CB         31.1763   -2.1697   -9.3040 C.3       9 UNK        -0.1955 
     57 C          31.9138   -0.1832  -10.6750 C.2       9 UNK         0.5031 
     58 O          33.0378   -0.5453  -11.0262 O.2       9 UNK        -0.5390 
     59 N          31.5847    1.0932  -10.4103 N.am      10 UNK        -0.4204 
     60 CA         32.4880    2.2510  -10.3441 C.3       10 UNK         0.0237 
     61 CB         33.0294    2.6121  -11.7437 C.3       10 UNK        -0.1985 
     62 C          33.5973    2.0385   -9.2946 C.2       10 UNK         0.4970 
     63 O          34.7843    2.1776   -9.5965 O.2       10 UNK        -0.4914 
     64 N          33.1709    1.6560   -8.0863 N.am      11 UNK        -0.4285 
     65 CA         34.0251    1.2611   -6.9602 C.3       11 UNK         0.1007 
     66 C          34.6984    2.4484   -6.2113 C.2       11 UNK         0.5703 
     67 N          34.2837    3.6911   -6.4301 N.am      11 UNK        -0.7361 
     68 O          35.6225    2.2418   -5.4287 O.2       11 UNK        -0.4986 
     69 C69        33.2451    0.3240   -5.9946 C.3       12 UNK        -0.0947 
     70 S70        34.2771   -1.0248   -5.3372 S.3       12 UNK        -0.2240 
     71 C71        33.3557   -2.5028   -5.8944 C.3       12 UNK         0.0194 
     72 H72        28.5950   -3.8907    3.1899 H         1 UNK         0.0906 
     73 H73        27.2344   -4.8305    2.5716 H         1 UNK         0.0906 
     74 H74        28.7071   -4.6724    1.6123 H         1 UNK         0.0906 
     75 H75        28.4719   -3.2169   -0.0681 H         1 UNK         0.3140 
     76 H76        27.4468   -0.5674    0.2765 H         1 UNK         0.1085 
     77 H77        27.8442   -0.3185   -2.1633 H         1 UNK         0.0836 
     78 H78        28.1197   -2.0241   -2.3363 H         1 UNK         0.0836 
     79 H79        31.7463   -2.4933   -1.0772 H         1 UNK         0.0731 
     80 H80        30.2020   -3.2822   -0.9695 H         1 UNK         0.0731 
     81 H81        32.7141   -1.8604   -3.2577 H         1 UNK         0.1312 
     82 H82        31.2267   -3.9778   -6.6898 H         1 UNK         0.1406 
     83 H83        29.0553   -4.0579   -3.0012 H         1 UNK         0.1631 
     84 H84        29.5201   -5.8593   -6.0201 H         1 UNK         0.0717 
     85 H85        28.3773   -5.5007   -4.7553 H         1 UNK         0.0717 
     86 H86        25.9805   -3.5214   -5.5360 H         1 UNK         0.0934 
     87 H87        27.4153   -2.8996   -4.7719 H         1 UNK         0.0934 
     88 H88        26.4622   -1.9610   -7.5150 H         1 UNK         0.0739 
     89 H89        25.1385   -1.3280   -5.1493 H         1 UNK         0.3093 
     90 H90        24.1736    1.3753   -5.0668 H         1 UNK         0.0818 
     91 H91        22.2255    2.1535   -6.4643 H         1 UNK         0.0819 
     92 H92        23.7623    2.5784   -7.1962 H         1 UNK         0.0819 
     93 H93        22.8396    1.2216   -7.8299 H         1 UNK         0.0819 
     94 H94        22.9805   -1.1161   -6.0777 H         1 UNK         0.3041 
     95 H95        20.5956   -1.4064   -3.6744 H         1 UNK         0.0784 
     96 H96        20.9945   -2.2331   -6.0135 H         1 UNK         0.0793 
     97 H97        22.4966   -3.0001   -5.4939 H         1 UNK         0.0793 
     98 H98        20.9559   -3.5412   -4.8501 H         1 UNK         0.0793 
     99 H99        21.7034   -2.4203   -2.0438 H         1 UNK         0.3024 
    100 H100       23.3828   -2.7533   -0.6021 H         1 UNK         0.1171 
    101 H101       24.5554   -5.0993   -2.2067 H         1 UNK         0.0786 
    102 H102       24.1563   -5.1245   -0.4879 H         1 UNK         0.0786 
    103 H103       22.8827   -4.9650   -1.6845 H         1 UNK         0.0786 
    104 H104       26.0696   -3.5604   -0.9769 H         1 UNK         0.2977 
    105 H105       27.6477    0.0390   -4.8271 H         1 UNK         0.3127 
    106 H106       30.3413    0.2691   -5.6360 H         1 UNK         0.0770 
    107 H107       28.5769    2.2637   -4.1171 H         1 UNK         0.0814 
    108 H108       30.3285    2.3582   -4.2435 H         1 UNK         0.0814 
    109 H109       29.5917    1.0050   -3.4118 H         1 UNK         0.0814 
    110 H110       27.4464    2.0240   -6.7330 H         1 UNK         0.2983 
    111 H111       28.9457    3.9264   -8.3812 H         1 UNK         0.0947 
    112 H112       26.6831    4.6554   -9.1040 H         1 UNK         0.0806 
    113 H113       26.7848    4.6054   -7.3517 H         1 UNK         0.0806 
    114 H114       25.9406    3.3279   -8.2250 H         1 UNK         0.0806 
    115 H115       26.8893    1.0245   -8.8738 H         1 UNK         0.3000 
    116 H116       26.9906    0.9652  -11.6840 H         1 UNK         0.0850 
    117 H117       26.1424   -1.3515  -11.4380 H         1 UNK         0.0810 
    118 H118       25.3368   -0.2905  -10.2912 H         1 UNK         0.0810 
    119 H119       26.6135   -1.3771   -9.7460 H         1 UNK         0.0810 
    120 H120       29.1604   -0.6641   -9.3154 H         1 UNK         0.3040 
    121 H121       30.8132   -1.8690  -11.3964 H         1 UNK         0.0766 
    122 H122       31.2515   -1.6041   -8.3746 H         1 UNK         0.0812 
    123 H123       32.1332   -2.6689   -9.4609 H         1 UNK         0.0812 
    124 H124       30.4237   -2.9456   -9.1610 H         1 UNK         0.0812 
    125 H125       30.6230    1.2836  -10.1592 H         1 UNK         0.3205 
    126 H126       31.8862    3.0915   -9.9944 H         1 UNK         0.0754 
    127 H127       33.6200    3.5283  -11.7080 H         1 UNK         0.0769 
    128 H128       32.2160    2.7777  -12.4503 H         1 UNK         0.0769 
    129 H129       33.6703    1.8281  -12.1480 H         1 UNK         0.0769 
    130 H130       32.1700    1.6718   -7.8950 H         1 UNK         0.2981 
    131 H131       34.8451    0.6880   -7.3977 H         1 UNK         0.0541 
    132 H132       34.7301    4.4543   -5.9467 H         1 UNK         0.3459 
    133 H133       33.5233    3.8690   -7.0662 H         1 UNK         0.3459 
    134 H134       32.4063   -0.1363   -6.5179 H         1 UNK         0.0612 
    135 H135       32.8005    0.8749   -5.1635 H         1 UNK         0.0612 
    136 H136       33.1009   -2.3821   -6.9478 H         1 UNK         0.0624 
    137 H137       34.0333   -3.3557   -5.8428 H         1 UNK         0.0624 
@<TRIPOS>BOND
     1    1    2 1    
     2    1   72 1    
     3    1   73 1    
     4    1   74 1    
     5    2    3 2    
     6    2    4 am   BACKBONE|DICT|INTERRES
     7    4    5 1    
     8    4   75 1    
     9    5    6 1    
    10    5   35 1    
    11    5   76 1    
    12    6    7 1    
    13    6   77 1    
    14    6   78 1    
    15    7    8 1    
    16    8    9 1    
    17    8   79 1    
    18    8   80 1    
    19    9   10 ar   
    20    9   14 ar   
    21   10   11 ar   
    22   10   81 1    
    23   11   12 ar   
    24   11   71 1    
    25   12   13 ar   
    26   12   82 1    
    27   13   14 ar   
    28   13   15 1    
    29   14   83 1    
    30   15   16 1    
    31   15   84 1    
    32   15   85 1    
    33   16   17 1    
    34   17   18 1    
    35   17   86 1    
    36   17   87 1    
    37   18   19 1    
    38   18   37 1    
    39   18   88 1    
    40   19   20 am   BACKBONE|DICT|INTERRES
    41   19   89 1    
    42   20   21 2    
    43   20   22 1    
    44   22   23 1    
    45   22   24 1    
    46   22   90 1    
    47   23   91 1    
    48   23   92 1    
    49   23   93 1    
    50   24   25 am   BACKBONE|DICT|INTERRES
    51   24   94 1    
    52   25   26 2    
    53   25   27 1    
    54   27   28 1    
    55   27   29 1    
    56   27   95 1    
    57   28   96 1    
    58   28   97 1    
    59   28   98 1    
    60   29   30 am   BACKBONE|DICT|INTERRES
    61   29   99 1    
    62   30   31 2    
    63   30   32 1    
    64   32   33 1    
    65   32   34 1    
    66   32  100 1    
    67   33  101 1    
    68   33  102 1    
    69   33  103 1    
    70   34   35 am   BACKBONE|DICT|INTERRES
    71   34  104 1    
    72   35   36 2    
    73   37   38 2    
    74   37   39 am   BACKBONE|DICT|INTERRES
    75   39   40 1    
    76   39  105 1    
    77   40   41 1    
    78   40   42 1    
    79   40  106 1    
    80   41  107 1    
    81   41  108 1    
    82   41  109 1    
    83   42   43 2    
    84   42   44 am   BACKBONE|DICT|INTERRES
    85   44   45 1    
    86   44  110 1    
    87   45   46 1    
    88   45   47 1    
    89   45  111 1    
    90   46  112 1    
    91   46  113 1    
    92   46  114 1    
    93   47   48 2    
    94   47   49 am   BACKBONE|DICT|INTERRES
    95   49   50 1    
    96   49  115 1    
    97   50   51 1    
    98   50   52 1    
    99   50  116 1    
   100   51  117 1    
   101   51  118 1    
   102   51  119 1    
   103   52   53 2    
   104   52   54 am   BACKBONE|DICT|INTERRES
   105   54   55 1    
   106   54  120 1    
   107   55   56 1    
   108   55   57 1    
   109   55  121 1    
   110   56  122 1    
   111   56  123 1    
   112   56  124 1    
   113   57   58 2    
   114   57   59 am   BACKBONE|DICT|INTERRES
   115   59   60 1    
   116   59  125 1    
   117   60   61 1    
   118   60   62 1    
   119   60  126 1    
   120   61  127 1    
   121   61  128 1    
   122   61  129 1    
   123   62   63 2    
   124   62   64 am   BACKBONE|DICT|INTERRES
   125   64   65 1    
   126   64  130 1    
   127   65   66 1    
   128   65   69 1    
   129   65  131 1    
   130   66   67 am   BACKBONE|DICT|INTERRES
   131   66   68 2    
   132   67  132 1    
   133   67  133 1    
   134   69   70 1    
   135   69  134 1    
   136   69  135 1    
   137   70   71 1    
   138   71  136 1    
   139   71  137 1    
@<TRIPOS>SUBSTRUCTURE
     1 UNK         1 GROUP             0       ****    0 ROOT    
