@<TRIPOS>MOLECULE
3R137
137   139    1
SMALL
USER_CHARGES


@<TRIPOS>ATOM
      1 CA         28.8162    1.9051    1.7264 C.3       0 UNK        -0.2020 
      2 C          28.5653    0.5469    2.3769 C.2       0 UNK         0.4855 
      3 O          28.3483    0.4898    3.5855 O.2       0 UNK        -0.5197 
      4 N          28.5879   -0.5724    1.6374 N.am      1 UNK        -0.4892 
      5 CA         28.7823   -0.6787    0.1832 C.3       1 UNK         0.0835 
      6 C6         29.1377   -2.1351   -0.2135 C.3       12 UNK        -0.0855 
      7 S7         30.0295   -2.2237   -1.7998 S.3       12 UNK        -0.2931 
      8 C8         29.8244   -3.9813   -2.2369 C.3       12 UNK         0.0378 
      9 C9         30.0190   -4.2275   -3.7292 C.ar      12 UNK        -0.0802 
     10 C10        31.1867   -3.8091   -4.3755 C.ar      12 UNK        -0.0944 
     11 C11        31.3591   -4.0205   -5.7465 C.ar      12 UNK        -0.0787 
     12 C12        30.3574   -4.6740   -6.4737 C.ar      12 UNK        -0.0862 
     13 C13        29.1992   -5.1282   -5.8336 C.ar      12 UNK        -0.0733 
     14 C14        29.0324   -4.8917   -4.4652 C.ar      12 UNK        -0.0832 
     15 C15        28.1558   -5.9395   -6.5903 C.3       12 UNK         0.0240 
     16 S16        26.6142   -5.0122   -6.8710 S.3       12 UNK        -0.2522 
     17 C17        26.8246   -4.3926   -8.5800 C.3       12 UNK        -0.0967 
     18 CA         26.5326   -2.8802   -8.7468 C.3       5 UNK         0.0660 
     19 N          25.2604   -2.4811   -8.1391 N.am      5 UNK        -0.4015 
     20 C          24.6751   -1.2850   -8.2893 C.2       4 UNK         0.4946 
     21 O          25.1061   -0.3948   -9.0210 O.2       4 UNK        -0.5353 
     22 CA         23.4236   -1.0214   -7.4368 C.3       4 UNK         0.0277 
     23 CB         22.1709   -1.5957   -8.1176 C.3       4 UNK        -0.1981 
     24 N          23.5385   -1.5528   -6.0735 N.am      4 UNK        -0.4209 
     25 C          24.4284   -1.1195   -5.1705 C.2       3 UNK         0.4942 
     26 O          25.2541   -0.2303   -5.3921 O.2       3 UNK        -0.5208 
     27 CA         24.4202   -1.8185   -3.8082 C.3       3 UNK         0.0250 
     28 CB         25.3154   -3.0714   -3.8228 C.3       3 UNK        -0.1990 
     29 N          24.8972   -0.8779   -2.7988 N.am      3 UNK        -0.4232 
     30 C          24.5501   -0.8928   -1.5082 C.2       2 UNK         0.4993 
     31 O          23.8344   -1.7587   -0.9999 O.2       2 UNK        -0.5286 
     32 CA         25.1188    0.2317   -0.6290 C.3       2 UNK         0.0209 
     33 CB         24.1403    0.6477    0.4850 C.3       2 UNK        -0.1931 
     34 N          26.3729   -0.2051   -0.0194 N.am      2 UNK        -0.4546 
     35 C          27.5704   -0.1446   -0.6170 C.2       1 UNK         0.5154 
     36 O          27.7409    0.3495   -1.7314 O.2       1 UNK        -0.5181 
     37 C          27.7061   -2.0125   -8.2583 C.2       5 UNK         0.5014 
     38 O          28.5122   -1.5766   -9.0799 O.2       5 UNK        -0.5248 
     39 N          27.7491   -1.7416   -6.9462 N.am      6 UNK        -0.4434 
     40 CA         28.7465   -0.8846   -6.3088 C.3       6 UNK         0.0363 
     41 CB         28.5926   -0.9447   -4.7847 C.3       6 UNK        -0.1936 
     42 C          28.6657    0.5661   -6.7956 C.2       6 UNK         0.5081 
     43 O          29.7039    1.1686   -7.0634 O.2       6 UNK        -0.5248 
     44 N          27.4387    1.0867   -6.9316 N.am      7 UNK        -0.4718 
     45 CA         27.1598    2.4089   -7.4900 C.3       7 UNK         0.0273 
     46 CB         25.6792    2.7589   -7.2716 C.3       7 UNK        -0.1935 
     47 C          27.5398    2.5125   -8.9767 C.2       7 UNK         0.5018 
     48 O          28.1755    3.4924   -9.3655 O.2       7 UNK        -0.5186 
     49 N          27.1643    1.4996   -9.7720 N.am      8 UNK        -0.4240 
     50 CA         27.4434    1.4205  -11.2082 C.3       8 UNK         0.0235 
     51 CB         26.6508    0.2591  -11.8296 C.3       8 UNK        -0.2000 
     52 C          28.9401    1.2889  -11.5325 C.2       8 UNK         0.4941 
     53 O          29.4309    2.0029  -12.4079 O.2       8 UNK        -0.5273 
     54 N          29.6383    0.3876  -10.8282 N.am      9 UNK        -0.4262 
     55 CA         31.0706    0.1328  -11.0117 C.3       9 UNK         0.0264 
     56 CB         31.3820   -1.3063  -10.5725 C.3       9 UNK        -0.1955 
     57 C          31.9788    1.1405  -10.2814 C.2       9 UNK         0.5031 
     58 O          33.1835    1.1401  -10.5396 O.2       9 UNK        -0.5390 
     59 N          31.4010    1.9688   -9.3976 N.am      10 UNK        -0.4204 
     60 CA         32.0559    2.9582   -8.5332 C.3       10 UNK         0.0237 
     61 CB         32.7052    4.0860   -9.3642 C.3       10 UNK        -0.1985 
     62 C          33.0224    2.2983   -7.5305 C.2       10 UNK         0.4970 
     63 O          34.1810    2.7048   -7.4203 O.2       10 UNK        -0.4914 
     64 N          32.5171    1.2816   -6.8220 N.am      11 UNK        -0.4285 
     65 CA         33.2502    0.5164   -5.7997 C.3       11 UNK         0.1007 
     66 C          33.4421    1.2709   -4.4520 C.2       11 UNK         0.5703 
     67 N          32.7509    2.3771   -4.2010 N.am      11 UNK        -0.7361 
     68 O          34.2443    0.8490   -3.6223 O.2       11 UNK        -0.4986 
     69 C69        32.6230   -0.8827   -5.5617 C.3       12 UNK        -0.0947 
     70 S70        32.5458   -1.8879   -7.0818 S.3       12 UNK        -0.2240 
     71 C71        32.6483   -3.5828   -6.4293 C.3       12 UNK         0.0194 
     72 H72        29.7255    1.9002    1.1268 H         1 UNK         0.0906 
     73 H73        27.9766    2.1958    1.0959 H         1 UNK         0.0906 
     74 H74        28.9356    2.6739    2.4897 H         1 UNK         0.0906 
     75 H75        28.4336   -1.4506    2.1130 H         1 UNK         0.3140 
     76 H76        29.6362   -0.0505   -0.0776 H         1 UNK         0.1085 
     77 H77        29.7921   -2.5821    0.5371 H         1 UNK         0.0836 
     78 H78        28.2440   -2.7617   -0.2458 H         1 UNK         0.0836 
     79 H79        28.8323   -4.3146   -1.9287 H         1 UNK         0.0731 
     80 H80        30.5430   -4.5786   -1.6742 H         1 UNK         0.0731 
     81 H81        31.9599   -3.3101   -3.8079 H         1 UNK         0.1312 
     82 H82        30.4948   -4.8544   -7.5311 H         1 UNK         0.1406 
     83 H83        28.1343   -5.2406   -3.9734 H         1 UNK         0.1631 
     84 H84        27.9151   -6.8280   -6.0048 H         1 UNK         0.0717 
     85 H85        28.5551   -6.3112   -7.5350 H         1 UNK         0.0717 
     86 H86        27.8229   -4.6310   -8.9527 H         1 UNK         0.0934 
     87 H87        26.1405   -4.9592   -9.2136 H         1 UNK         0.0934 
     88 H88        26.4383   -2.6887   -9.8180 H         1 UNK         0.0739 
     89 H89        24.8406   -3.1540   -7.5146 H         1 UNK         0.3093 
     90 H90        23.3030    0.0616   -7.3616 H         1 UNK         0.0818 
     91 H91        21.2658   -1.3326   -7.5698 H         1 UNK         0.0819 
     92 H92        22.0613   -1.1991   -9.1281 H         1 UNK         0.0819 
     93 H93        22.2120   -2.6827   -8.1971 H         1 UNK         0.0819 
     94 H94        22.8931   -2.2855   -5.8135 H         1 UNK         0.3041 
     95 H95        23.3926   -2.1068   -3.5757 H         1 UNK         0.0784 
     96 H96        24.9685   -3.7938   -4.5621 H         1 UNK         0.0793 
     97 H97        26.3510   -2.8278   -4.0604 H         1 UNK         0.0793 
     98 H98        25.3080   -3.5745   -2.8558 H         1 UNK         0.0793 
     99 H99        25.4920   -0.1405   -3.1590 H         1 UNK         0.3024 
    100 H100       25.2989    1.1081   -1.2568 H         1 UNK         0.1171 
    101 H101       24.5316    1.4861    1.0616 H         1 UNK         0.0786 
    102 H102       23.1838    0.9620    0.0651 H         1 UNK         0.0786 
    103 H103       23.9389   -0.1695    1.1790 H         1 UNK         0.0786 
    104 H104       26.3113   -0.6366    0.8917 H         1 UNK         0.2977 
    105 H105       27.0360   -2.1329   -6.3503 H         1 UNK         0.3127 
    106 H106       29.7277   -1.2791   -6.5741 H         1 UNK         0.0770 
    107 H107       27.6503   -0.5163   -4.4460 H         1 UNK         0.0814 
    108 H108       28.6384   -1.9696   -4.4254 H         1 UNK         0.0814 
    109 H109       29.3895   -0.3902   -4.2884 H         1 UNK         0.0814 
    110 H110       26.6415    0.5347   -6.6281 H         1 UNK         0.2983 
    111 H111       27.7656    3.1347   -6.9430 H         1 UNK         0.0947 
    112 H112       25.4227    2.7485   -6.2120 H         1 UNK         0.0806 
    113 H113       25.0173    2.0575   -7.7803 H         1 UNK         0.0806 
    114 H114       25.4537    3.7561   -7.6516 H         1 UNK         0.0806 
    115 H115       26.5974    0.7526   -9.3765 H         1 UNK         0.3000 
    116 H116       27.0904    2.3490  -11.6622 H         1 UNK         0.0850 
    117 H117       26.8367    0.1867  -12.9020 H         1 UNK         0.0810 
    118 H118       25.5776    0.3964  -11.6953 H         1 UNK         0.0810 
    119 H119       26.9222   -0.6986  -11.3841 H         1 UNK         0.0810 
    120 H120       29.1570   -0.1974  -10.1454 H         1 UNK         0.3040 
    121 H121       31.3055    0.2100  -12.0755 H         1 UNK         0.0766 
    122 H122       31.1200   -1.4672   -9.5278 H         1 UNK         0.0812 
    123 H123       32.4426   -1.5355  -10.6837 H         1 UNK         0.0812 
    124 H124       30.8274   -2.0311  -11.1683 H         1 UNK         0.0812 
    125 H125       30.4115    1.8433   -9.2266 H         1 UNK         0.3205 
    126 H126       31.2610    3.4102   -7.9379 H         1 UNK         0.0754 
    127 H127       33.0855    4.8766   -8.7162 H         1 UNK         0.0769 
    128 H128       31.9840    4.5418  -10.0426 H         1 UNK         0.0769 
    129 H129       33.5439    3.7242   -9.9596 H         1 UNK         0.0769 
    130 H130       31.5336    1.0507   -6.9455 H         1 UNK         0.2981 
    131 H131       34.2576    0.3515   -6.1867 H         1 UNK         0.0541 
    132 H132       32.0874    2.7274   -4.8725 H         1 UNK         0.3459 
    133 H133       32.8904    2.8588   -3.3271 H         1 UNK         0.3459 
    134 H134       31.6170   -0.7896   -5.1520 H         1 UNK         0.0612 
    135 H135       33.2062   -1.4311   -4.8201 H         1 UNK         0.0612 
    136 H136       33.4913   -3.6613   -5.7411 H         1 UNK         0.0624 
    137 H137       32.8720   -4.2576   -7.2567 H         1 UNK         0.0624 
@<TRIPOS>BOND
     1    1    2 1    
     2    1   72 1    
     3    1   73 1    
     4    1   74 1    
     5    2    3 2    
     6    2    4 am   BACKBONE|DICT|INTERRES
     7    4    5 1    
     8    4   75 1    
     9    5    6 1    
    10    5   35 1    
    11    5   76 1    
    12    6    7 1    
    13    6   77 1    
    14    6   78 1    
    15    7    8 1    
    16    8    9 1    
    17    8   79 1    
    18    8   80 1    
    19    9   10 ar   
    20    9   14 ar   
    21   10   11 ar   
    22   10   81 1    
    23   11   12 ar   
    24   11   71 1    
    25   12   13 ar   
    26   12   82 1    
    27   13   14 ar   
    28   13   15 1    
    29   14   83 1    
    30   15   16 1    
    31   15   84 1    
    32   15   85 1    
    33   16   17 1    
    34   17   18 1    
    35   17   86 1    
    36   17   87 1    
    37   18   19 1    
    38   18   37 1    
    39   18   88 1    
    40   19   20 am   BACKBONE|DICT|INTERRES
    41   19   89 1    
    42   20   21 2    
    43   20   22 1    
    44   22   23 1    
    45   22   24 1    
    46   22   90 1    
    47   23   91 1    
    48   23   92 1    
    49   23   93 1    
    50   24   25 am   BACKBONE|DICT|INTERRES
    51   24   94 1    
    52   25   26 2    
    53   25   27 1    
    54   27   28 1    
    55   27   29 1    
    56   27   95 1    
    57   28   96 1    
    58   28   97 1    
    59   28   98 1    
    60   29   30 am   BACKBONE|DICT|INTERRES
    61   29   99 1    
    62   30   31 2    
    63   30   32 1    
    64   32   33 1    
    65   32   34 1    
    66   32  100 1    
    67   33  101 1    
    68   33  102 1    
    69   33  103 1    
    70   34   35 am   BACKBONE|DICT|INTERRES
    71   34  104 1    
    72   35   36 2    
    73   37   38 2    
    74   37   39 am   BACKBONE|DICT|INTERRES
    75   39   40 1    
    76   39  105 1    
    77   40   41 1    
    78   40   42 1    
    79   40  106 1    
    80   41  107 1    
    81   41  108 1    
    82   41  109 1    
    83   42   43 2    
    84   42   44 am   BACKBONE|DICT|INTERRES
    85   44   45 1    
    86   44  110 1    
    87   45   46 1    
    88   45   47 1    
    89   45  111 1    
    90   46  112 1    
    91   46  113 1    
    92   46  114 1    
    93   47   48 2    
    94   47   49 am   BACKBONE|DICT|INTERRES
    95   49   50 1    
    96   49  115 1    
    97   50   51 1    
    98   50   52 1    
    99   50  116 1    
   100   51  117 1    
   101   51  118 1    
   102   51  119 1    
   103   52   53 2    
   104   52   54 am   BACKBONE|DICT|INTERRES
   105   54   55 1    
   106   54  120 1    
   107   55   56 1    
   108   55   57 1    
   109   55  121 1    
   110   56  122 1    
   111   56  123 1    
   112   56  124 1    
   113   57   58 2    
   114   57   59 am   BACKBONE|DICT|INTERRES
   115   59   60 1    
   116   59  125 1    
   117   60   61 1    
   118   60   62 1    
   119   60  126 1    
   120   61  127 1    
   121   61  128 1    
   122   61  129 1    
   123   62   63 2    
   124   62   64 am   BACKBONE|DICT|INTERRES
   125   64   65 1    
   126   64  130 1    
   127   65   66 1    
   128   65   69 1    
   129   65  131 1    
   130   66   67 am   BACKBONE|DICT|INTERRES
   131   66   68 2    
   132   67  132 1    
   133   67  133 1    
   134   69   70 1    
   135   69  134 1    
   136   69  135 1    
   137   70   71 1    
   138   71  136 1    
   139   71  137 1    
@<TRIPOS>SUBSTRUCTURE
     1 UNK         1 GROUP             0       ****    0 ROOT    
