@<TRIPOS>MOLECULE
3R137
137   139    1
SMALL
USER_CHARGES


@<TRIPOS>ATOM
      1 CA         26.6975   -5.7836   -3.0585 C.3       0 UNK        -0.2020 
      2 C          27.1840   -4.4142   -2.6073 C.2       0 UNK         0.4855 
      3 O          27.1889   -3.4854   -3.4105 O.2       0 UNK        -0.5197 
      4 N          27.5851   -4.2983   -1.3332 N.am      1 UNK        -0.4892 
      5 CA         28.0973   -3.0973   -0.6547 C.3       1 UNK         0.0835 
      6 C6         29.6429   -2.9156   -0.7813 C.3       12 UNK        -0.0855 
      7 S7         30.2753   -2.5148   -2.4486 S.3       12 UNK        -0.2931 
      8 C8         31.0405   -4.0884   -2.9434 C.3       12 UNK         0.0378 
      9 C9         31.1873   -4.1666   -4.4548 C.ar      12 UNK        -0.0802 
     10 C10        32.4213   -3.9518   -5.0764 C.ar      12 UNK        -0.0944 
     11 C11        32.5345   -4.0475   -6.4677 C.ar      12 UNK        -0.0787 
     12 C12        31.3998   -4.3303   -7.2356 C.ar      12 UNK        -0.0862 
     13 C13        30.1572   -4.5324   -6.6286 C.ar      12 UNK        -0.0733 
     14 C14        30.0693   -4.4684   -5.2344 C.ar      12 UNK        -0.0832 
     15 C15        28.9357   -4.8403   -7.4954 C.3       12 UNK         0.0240 
     16 S16        27.3534   -4.2197   -6.8235 S.3       12 UNK        -0.2522 
     17 C17        27.7026   -2.4342   -6.6896 C.3       12 UNK        -0.0967 
     18 CA         26.4262   -1.5731   -6.8694 C.3       5 UNK         0.0660 
     19 N          25.5350   -1.6391   -5.7085 N.am      5 UNK        -0.4015 
     20 C          24.3560   -2.2772   -5.6731 C.2       4 UNK         0.4946 
     21 O          23.9108   -2.9473   -6.6063 O.2       4 UNK        -0.5353 
     22 CA         23.4806   -2.1041   -4.4136 C.3       4 UNK         0.0277 
     23 CB         23.5835   -3.3197   -3.4804 C.3       4 UNK        -0.1981 
     24 N          23.7642   -0.8835   -3.6552 N.am      4 UNK        -0.4209 
     25 C          23.5676    0.3573   -4.1214 C.2       3 UNK         0.4942 
     26 O          23.0604    0.5967   -5.2177 O.2       3 UNK        -0.5208 
     27 CA         24.0427    1.5334   -3.2497 C.3       3 UNK         0.0250 
     28 CB         22.8501    2.1725   -2.5203 C.3       3 UNK        -0.1990 
     29 N          25.0919    1.2209   -2.2723 N.am      3 UNK        -0.4232 
     30 C          26.2974    0.6948   -2.5357 C.2       2 UNK         0.4993 
     31 O          26.6361    0.2868   -3.6488 O.2       2 UNK        -0.5286 
     32 CA         27.3071    0.6410   -1.3708 C.3       2 UNK         0.0209 
     33 CB         26.7704    1.1872   -0.0259 C.3       2 UNK        -0.1931 
     34 N          27.8812   -0.6953   -1.1900 N.am      2 UNK        -0.4546 
     35 C          27.2344   -1.8277   -0.8801 C.2       1 UNK         0.5154 
     36 O          26.0127   -1.8942   -0.7143 O.2       1 UNK        -0.5181 
     37 C          26.7351   -0.0982   -7.1929 C.2       5 UNK         0.5014 
     38 O          27.8717    0.2325   -7.5427 O.2       5 UNK        -0.5248 
     39 N          25.7128    0.7721   -7.1286 N.am      6 UNK        -0.4434 
     40 CA         25.7991    2.1900   -7.5067 C.3       6 UNK         0.0363 
     41 CB         24.4577    2.8889   -7.2366 C.3       6 UNK        -0.1936 
     42 C          26.2239    2.4150   -8.9694 C.2       6 UNK         0.5081 
     43 O          26.9277    3.3840   -9.2501 O.2       6 UNK        -0.5248 
     44 N          25.8486    1.4881   -9.8633 N.am      7 UNK        -0.4718 
     45 CA         26.2529    1.4649  -11.2743 C.3       7 UNK         0.0273 
     46 CB         25.4620    0.3684  -12.0058 C.3       7 UNK        -0.1935 
     47 C          27.7671    1.2683  -11.4887 C.2       7 UNK         0.5018 
     48 O          28.2862    1.6965  -12.5197 O.2       7 UNK        -0.5186 
     49 N          28.4447    0.6492  -10.5122 N.am      8 UNK        -0.4240 
     50 CA         29.8994    0.4863  -10.4617 C.3       8 UNK         0.0235 
     51 CB         30.2168   -0.9682  -10.0656 C.3       8 UNK        -0.2000 
     52 C          30.5457    1.4704   -9.4682 C.2       8 UNK         0.4941 
     53 O          31.7324    1.3222   -9.1729 O.2       8 UNK        -0.5273 
     54 N          29.7596    2.4144   -8.9205 N.am      9 UNK        -0.4262 
     55 CA         30.1093    3.3581   -7.8500 C.3       9 UNK         0.0264 
     56 CB         31.0752    4.4375   -8.3822 C.3       9 UNK        -0.1955 
     57 C          30.6389    2.6621   -6.5788 C.2       9 UNK         0.5031 
     58 O          31.5277    3.2001   -5.9142 O.2       9 UNK        -0.5390 
     59 N          30.1329    1.4474   -6.3015 N.am      10 UNK        -0.4204 
     60 CA         30.5805    0.5150   -5.2571 C.3       10 UNK         0.0237 
     61 CB         30.2127    1.0762   -3.8685 C.3       10 UNK        -0.1985 
     62 C          32.0759    0.1318   -5.3573 C.2       10 UNK         0.4970 
     63 O          32.6681   -0.2562   -4.3490 O.2       10 UNK        -0.4914 
     64 N          32.6707    0.2913   -6.5507 N.am      11 UNK        -0.4285 
     65 CA         34.1164    0.2256   -6.8146 C.3       11 UNK         0.1007 
     66 C          34.9578    1.2948   -6.0479 C.2       11 UNK         0.5703 
     67 N          34.3748    2.4034   -5.6026 N.am      11 UNK        -0.7361 
     68 O          36.1661    1.1428   -5.8816 O.2       11 UNK        -0.4986 
     69 C69        34.6877   -1.2170   -6.7098 C.3       12 UNK        -0.0947 
     70 S70        34.0260   -2.2984   -8.0197 S.3       12 UNK        -0.2240 
     71 C71        33.8839   -3.8885   -7.1511 C.3       12 UNK         0.0194 
     72 H72        27.2963   -6.1361   -3.8980 H         1 UNK         0.0906 
     73 H73        26.7597   -6.5250   -2.2622 H         1 UNK         0.0906 
     74 H74        25.6604   -5.7228   -3.3868 H         1 UNK         0.0906 
     75 H75        27.5097   -5.1105   -0.7369 H         1 UNK         0.3140 
     76 H76        27.9268   -3.3121    0.4017 H         1 UNK         0.1085 
     77 H77        30.1379   -3.8212   -0.4276 H         1 UNK         0.0836 
     78 H78        29.9832   -2.1351   -0.0982 H         1 UNK         0.0836 
     79 H79        32.0086   -4.1918   -2.4511 H         1 UNK         0.0731 
     80 H80        30.4245   -4.9211   -2.6001 H         1 UNK         0.0731 
     81 H81        33.2925   -3.7227   -4.4782 H         1 UNK         0.1312 
     82 H82        31.4899   -4.3970   -8.3115 H         1 UNK         0.1406 
     83 H83        29.1202   -4.6316   -4.7469 H         1 UNK         0.1631 
     84 H84        28.8608   -5.9214   -7.6180 H         1 UNK         0.0717 
     85 H85        29.0693   -4.4233   -8.4950 H         1 UNK         0.0717 
     86 H86        28.4486   -2.1956   -7.4483 H         1 UNK         0.0934 
     87 H87        28.1721   -2.2302   -5.7251 H         1 UNK         0.0934 
     88 H88        25.9049   -1.9388   -7.7563 H         1 UNK         0.0739 
     89 H89        25.8379   -1.1063   -4.8966 H         1 UNK         0.3093 
     90 H90        22.4471   -2.0406   -4.7612 H         1 UNK         0.0818 
     91 H91        22.8052   -3.2976   -2.7175 H         1 UNK         0.0819 
     92 H92        23.4705   -4.2538   -4.0324 H         1 UNK         0.0819 
     93 H93        24.5446   -3.3504   -2.9703 H         1 UNK         0.0819 
     94 H94        24.2159   -0.9947   -2.7575 H         1 UNK         0.3041 
     95 H95        24.4632    2.2776   -3.9276 H         1 UNK         0.0784 
     96 H96        22.0628    2.4479   -3.2239 H         1 UNK         0.0793 
     97 H97        22.4111    1.4903   -1.7911 H         1 UNK         0.0793 
     98 H98        23.1439    3.0826   -1.9968 H         1 UNK         0.0793 
     99 H99        24.9063    1.5004   -1.3199 H         1 UNK         0.3024 
    100 H100       28.1323    1.2880   -1.6701 H         1 UNK         0.1171 
    101 H101       27.5440    1.1566    0.7416 H         1 UNK         0.0786 
    102 H102       25.9204    0.6138    0.3459 H         1 UNK         0.0786 
    103 H103       26.4601    2.2293   -0.1144 H         1 UNK         0.0786 
    104 H104       28.8674   -0.7823   -1.3994 H         1 UNK         0.2977 
    105 H105       24.8103    0.4432   -6.8087 H         1 UNK         0.3127 
    106 H106       26.5596    2.6516   -6.8732 H         1 UNK         0.0770 
    107 H107       23.6371    2.4127   -7.7745 H         1 UNK         0.0814 
    108 H108       24.4902    3.9338   -7.5489 H         1 UNK         0.0814 
    109 H109       24.2110    2.8831   -6.1766 H         1 UNK         0.0814 
    110 H110       25.2632    0.7294   -9.5451 H         1 UNK         0.2983 
    111 H111       25.9884    2.4302  -11.7119 H         1 UNK         0.0947 
    112 H112       25.7189    0.3434  -13.0659 H         1 UNK         0.0806 
    113 H113       24.3877    0.5416  -11.9400 H         1 UNK         0.0806 
    114 H114       25.6700   -0.6214  -11.5973 H         1 UNK         0.0806 
    115 H115       27.9437    0.3639   -9.6788 H         1 UNK         0.3000 
    116 H116       30.3398    0.6796  -11.4419 H         1 UNK         0.0850 
    117 H117       31.2907   -1.1587  -10.0954 H         1 UNK         0.0810 
    118 H118       29.7449   -1.6783  -10.7447 H         1 UNK         0.0810 
    119 H119       29.8780   -1.1928   -9.0541 H         1 UNK         0.0810 
    120 H120       28.7970    2.4737   -9.2338 H         1 UNK         0.3040 
    121 H121       29.1815    3.8535   -7.5605 H         1 UNK         0.0766 
    122 H122       31.2455    5.2142   -7.6357 H         1 UNK         0.0812 
    123 H123       30.6733    4.9259   -9.2698 H         1 UNK         0.0812 
    124 H124       32.0473    4.0163   -8.6412 H         1 UNK         0.0812 
    125 H125       29.3876    1.0905   -6.8988 H         1 UNK         0.3205 
    126 H126       30.0177   -0.4080   -5.4058 H         1 UNK         0.0754 
    127 H127       30.3871    0.3397   -3.0852 H         1 UNK         0.0769 
    128 H128       29.1603    1.3529   -3.8293 H         1 UNK         0.0769 
    129 H129       30.8019    1.9591   -3.6192 H         1 UNK         0.0769 
    130 H130       32.1212    0.6313   -7.3330 H         1 UNK         0.2981 
    131 H131       34.2209    0.5306   -7.8564 H         1 UNK         0.0541 
    132 H132       33.3813    2.5670   -5.7378 H         1 UNK         0.3459 
    133 H133       34.9322    3.0900   -5.1208 H         1 UNK         0.3459 
    134 H134       35.7726   -1.2208   -6.8246 H         1 UNK         0.0612 
    135 H135       34.4837   -1.6440   -5.7273 H         1 UNK         0.0612 
    136 H136       34.0092   -4.6916   -7.8788 H         1 UNK         0.0624 
    137 H137       34.7026   -3.9979   -6.4381 H         1 UNK         0.0624 
@<TRIPOS>BOND
     1    1    2 1    
     2    1   72 1    
     3    1   73 1    
     4    1   74 1    
     5    2    3 2    
     6    2    4 am   BACKBONE|DICT|INTERRES
     7    4    5 1    
     8    4   75 1    
     9    5    6 1    
    10    5   35 1    
    11    5   76 1    
    12    6    7 1    
    13    6   77 1    
    14    6   78 1    
    15    7    8 1    
    16    8    9 1    
    17    8   79 1    
    18    8   80 1    
    19    9   10 ar   
    20    9   14 ar   
    21   10   11 ar   
    22   10   81 1    
    23   11   12 ar   
    24   11   71 1    
    25   12   13 ar   
    26   12   82 1    
    27   13   14 ar   
    28   13   15 1    
    29   14   83 1    
    30   15   16 1    
    31   15   84 1    
    32   15   85 1    
    33   16   17 1    
    34   17   18 1    
    35   17   86 1    
    36   17   87 1    
    37   18   19 1    
    38   18   37 1    
    39   18   88 1    
    40   19   20 am   BACKBONE|DICT|INTERRES
    41   19   89 1    
    42   20   21 2    
    43   20   22 1    
    44   22   23 1    
    45   22   24 1    
    46   22   90 1    
    47   23   91 1    
    48   23   92 1    
    49   23   93 1    
    50   24   25 am   BACKBONE|DICT|INTERRES
    51   24   94 1    
    52   25   26 2    
    53   25   27 1    
    54   27   28 1    
    55   27   29 1    
    56   27   95 1    
    57   28   96 1    
    58   28   97 1    
    59   28   98 1    
    60   29   30 am   BACKBONE|DICT|INTERRES
    61   29   99 1    
    62   30   31 2    
    63   30   32 1    
    64   32   33 1    
    65   32   34 1    
    66   32  100 1    
    67   33  101 1    
    68   33  102 1    
    69   33  103 1    
    70   34   35 am   BACKBONE|DICT|INTERRES
    71   34  104 1    
    72   35   36 2    
    73   37   38 2    
    74   37   39 am   BACKBONE|DICT|INTERRES
    75   39   40 1    
    76   39  105 1    
    77   40   41 1    
    78   40   42 1    
    79   40  106 1    
    80   41  107 1    
    81   41  108 1    
    82   41  109 1    
    83   42   43 2    
    84   42   44 am   BACKBONE|DICT|INTERRES
    85   44   45 1    
    86   44  110 1    
    87   45   46 1    
    88   45   47 1    
    89   45  111 1    
    90   46  112 1    
    91   46  113 1    
    92   46  114 1    
    93   47   48 2    
    94   47   49 am   BACKBONE|DICT|INTERRES
    95   49   50 1    
    96   49  115 1    
    97   50   51 1    
    98   50   52 1    
    99   50  116 1    
   100   51  117 1    
   101   51  118 1    
   102   51  119 1    
   103   52   53 2    
   104   52   54 am   BACKBONE|DICT|INTERRES
   105   54   55 1    
   106   54  120 1    
   107   55   56 1    
   108   55   57 1    
   109   55  121 1    
   110   56  122 1    
   111   56  123 1    
   112   56  124 1    
   113   57   58 2    
   114   57   59 am   BACKBONE|DICT|INTERRES
   115   59   60 1    
   116   59  125 1    
   117   60   61 1    
   118   60   62 1    
   119   60  126 1    
   120   61  127 1    
   121   61  128 1    
   122   61  129 1    
   123   62   63 2    
   124   62   64 am   BACKBONE|DICT|INTERRES
   125   64   65 1    
   126   64  130 1    
   127   65   66 1    
   128   65   69 1    
   129   65  131 1    
   130   66   67 am   BACKBONE|DICT|INTERRES
   131   66   68 2    
   132   67  132 1    
   133   67  133 1    
   134   69   70 1    
   135   69  134 1    
   136   69  135 1    
   137   70   71 1    
   138   71  136 1    
   139   71  137 1    
@<TRIPOS>SUBSTRUCTURE
     1 UNK         1 GROUP             0       ****    0 ROOT    
