@<TRIPOS>MOLECULE
3R137
137   139    1
SMALL
USER_CHARGES


@<TRIPOS>ATOM
      1 CA         24.3464   -2.1801    0.7120 C.3       0 UNK        -0.2020 
      2 C          25.6828   -1.9888    0.0123 C.2       0 UNK         0.4855 
      3 O          26.1913   -0.8684   -0.0390 O.2       0 UNK        -0.5197 
      4 N          26.2574   -3.0665   -0.5395 N.am      1 UNK        -0.4892 
      5 CA         27.5332   -3.0430   -1.2641 C.3       1 UNK         0.0835 
      6 C6         28.0804   -4.4698   -1.5269 C.3       12 UNK        -0.0855 
      7 S7         29.8846   -4.5477   -1.2720 S.3       12 UNK        -0.2931 
      8 C8         30.4782   -5.1864   -2.8685 C.3       12 UNK         0.0378 
      9 C9         30.4073   -4.1439   -3.9746 C.ar      12 UNK        -0.0802 
     10 C10        31.2799   -3.0520   -3.9671 C.ar      12 UNK        -0.0944 
     11 C11        31.2674   -2.1247   -5.0128 C.ar      12 UNK        -0.0787 
     12 C12        30.3598   -2.2866   -6.0639 C.ar      12 UNK        -0.0862 
     13 C13        29.4857   -3.3779   -6.0879 C.ar      12 UNK        -0.0733 
     14 C14        29.5127   -4.3004   -5.0367 C.ar      12 UNK        -0.0832 
     15 C15        28.5731   -3.6144   -7.2847 C.3       12 UNK         0.0240 
     16 S16        26.8179   -3.7315   -6.8152 S.3       12 UNK        -0.2522 
     17 C17        26.2243   -2.0526   -7.1892 C.3       12 UNK        -0.0967 
     18 CA         24.7057   -1.9285   -6.9193 C.3       5 UNK         0.0660 
     19 N          24.3883   -2.0499   -5.4918 N.am      5 UNK        -0.4015 
     20 C          23.1511   -2.1978   -4.9942 C.2       4 UNK         0.4946 
     21 O          22.1476   -2.3817   -5.6841 O.2       4 UNK        -0.5353 
     22 CA         23.0016   -2.0695   -3.4707 C.3       4 UNK         0.0277 
     23 CB         23.2830   -3.4091   -2.7704 C.3       4 UNK        -0.1981 
     24 N          23.8746   -1.0160   -2.9434 N.am      4 UNK        -0.4209 
     25 C          23.6069    0.2957   -3.0496 C.2       3 UNK         0.4942 
     26 O          22.5474    0.7406   -3.4904 O.2       3 UNK        -0.5208 
     27 CA         24.7013    1.2896   -2.6224 C.3       3 UNK         0.0250 
     28 CB         24.4314    1.8171   -1.2041 C.3       3 UNK        -0.1990 
     29 N          26.0526    0.7271   -2.6959 N.am      3 UNK        -0.4232 
     30 C          26.7190    0.5239   -3.8435 C.2       2 UNK         0.4993 
     31 O          26.2667    0.8054   -4.9521 O.2       2 UNK        -0.5286 
     32 CA         28.0969   -0.1572   -3.7536 C.3       2 UNK         0.0209 
     33 CB         29.2003    0.8975   -3.5830 C.3       2 UNK        -0.1931 
     34 N          28.1937   -1.1451   -2.6755 N.am      2 UNK        -0.4546 
     35 C          27.3957   -2.2144   -2.5566 C.2       1 UNK         0.5154 
     36 O          26.5183   -2.5035   -3.3752 O.2       1 UNK        -0.5181 
     37 C          24.1385   -0.6293   -7.5320 C.2       5 UNK         0.5014 
     38 O          23.7632   -0.6338   -8.7052 O.2       5 UNK        -0.5248 
     39 N          24.0939    0.4533   -6.7393 N.am      6 UNK        -0.4434 
     40 CA         23.5570    1.7956   -7.0097 C.3       6 UNK         0.0363 
     41 CB         22.0732    1.7526   -7.4221 C.3       6 UNK        -0.1936 
     42 C          24.4020    2.6077   -8.0036 C.2       6 UNK         0.5081 
     43 O          24.7308    3.7596   -7.7215 O.2       6 UNK        -0.5248 
     44 N          24.7827    1.9811   -9.1219 N.am      7 UNK        -0.4718 
     45 CA         25.7668    2.4878  -10.0818 C.3       7 UNK         0.0273 
     46 CB         25.5428    1.7872  -11.4321 C.3       7 UNK        -0.1935 
     47 C          27.2194    2.2878   -9.6036 C.2       7 UNK         0.5018 
     48 O          28.1309    2.8435  -10.2185 O.2       7 UNK        -0.5186 
     49 N          27.4026    1.4983   -8.5325 N.am      8 UNK        -0.4240 
     50 CA         28.6712    1.0729   -7.9356 C.3       8 UNK         0.0235 
     51 CB         29.4140    2.2754   -7.3084 C.3       8 UNK        -0.2000 
     52 C          29.5195    0.2425   -8.9212 C.2       8 UNK         0.4941 
     53 O          28.9604   -0.5185   -9.7136 O.2       8 UNK        -0.5273 
     54 N          30.8449    0.3692   -8.8255 N.am      9 UNK        -0.4262 
     55 CA         31.8616   -0.2799   -9.6457 C.3       9 UNK         0.0264 
     56 CB         31.9828   -1.7760   -9.2870 C.3       9 UNK        -0.1955 
     57 C          33.1784    0.4678   -9.3965 C.2       9 UNK         0.5031 
     58 O          33.2168    1.3725   -8.5539 O.2       9 UNK        -0.5390 
     59 N          34.2468    0.0691  -10.0984 N.am      10 UNK        -0.4204 
     60 CA         35.6046    0.6150   -9.9697 C.3       10 UNK         0.0237 
     61 CB         36.4064    0.2581  -11.2361 C.3       10 UNK        -0.1985 
     62 C          36.3139    0.1681   -8.6705 C.2       10 UNK         0.4970 
     63 O          37.4161   -0.3809   -8.7225 O.2       10 UNK        -0.4914 
     64 N          35.6585    0.4035   -7.5299 N.am      11 UNK        -0.4285 
     65 CA         36.1301    0.0748   -6.1770 C.3       11 UNK         0.1007 
     66 C          37.1711    1.0786   -5.6009 C.2       11 UNK         0.5703 
     67 N          37.4294    2.2151   -6.2378 N.am      11 UNK        -0.7361 
     68 O          37.7661    0.8144   -4.5586 O.2       11 UNK        -0.4986 
     69 C69        34.9398   -0.1233   -5.2010 C.3       12 UNK        -0.0947 
     70 S70        33.8649   -1.5130   -5.6895 S.3       12 UNK        -0.2240 
     71 C71        32.2635   -0.9748   -5.0171 C.3       12 UNK         0.0194 
     72 H72        23.5734   -1.5998    0.2088 H         1 UNK         0.0906 
     73 H73        24.0369   -3.2249    0.7235 H         1 UNK         0.0906 
     74 H74        24.4124   -1.8357    1.7437 H         1 UNK         0.0906 
     75 H75        25.7898   -3.9607   -0.4953 H         1 UNK         0.3140 
     76 H76        28.2310   -2.5228   -0.6032 H         1 UNK         0.1085 
     77 H77        27.8076   -4.8400   -2.5176 H         1 UNK         0.0836 
     78 H78        27.6452   -5.1819   -0.8239 H         1 UNK         0.0836 
     79 H79        29.9147   -6.0826   -3.1334 H         1 UNK         0.0731 
     80 H80        31.5149   -5.5056   -2.7520 H         1 UNK         0.0731 
     81 H81        31.9880   -2.9386   -3.1574 H         1 UNK         0.1312 
     82 H82        30.3613   -1.5822   -6.8805 H         1 UNK         0.1406 
     83 H83        28.8486   -5.1539   -5.0617 H         1 UNK         0.1631 
     84 H84        28.8653   -4.5525   -7.7583 H         1 UNK         0.0717 
     85 H85        28.7055   -2.8409   -8.0428 H         1 UNK         0.0717 
     86 H86        26.7890   -1.3340   -6.5949 H         1 UNK         0.0934 
     87 H87        26.4517   -1.8423   -8.2370 H         1 UNK         0.0934 
     88 H88        24.2035   -2.7514   -7.4333 H         1 UNK         0.0739 
     89 H89        25.1712   -2.0130   -4.8468 H         1 UNK         0.3093 
     90 H90        21.9642   -1.7983   -3.2615 H         1 UNK         0.0818 
     91 H91        22.6212   -4.1885   -3.1507 H         1 UNK         0.0819 
     92 H92        23.1095   -3.3395   -1.6976 H         1 UNK         0.0819 
     93 H93        24.3051   -3.7520   -2.9277 H         1 UNK         0.0819 
     94 H94        24.7905   -1.3026   -2.6235 H         1 UNK         0.3041 
     95 H95        24.6530    2.1390   -3.3077 H         1 UNK         0.0784 
     96 H96        23.4657    2.3224   -1.1563 H         1 UNK         0.0793 
     97 H97        24.4114    1.0149   -0.4667 H         1 UNK         0.0793 
     98 H98        25.1887    2.5383   -0.8966 H         1 UNK         0.0793 
     99 H99        26.4656    0.4193   -1.8224 H         1 UNK         0.3024 
    100 H100       28.2630   -0.6859   -4.6941 H         1 UNK         0.1171 
    101 H101       30.1898    0.4433   -3.5923 H         1 UNK         0.0786 
    102 H102       29.1709    1.6282   -4.3917 H         1 UNK         0.0786 
    103 H103       29.0934    1.4459   -2.6463 H         1 UNK         0.0786 
    104 H104       28.8787   -0.9644   -1.9557 H         1 UNK         0.2977 
    105 H105       24.5842    0.3839   -5.8519 H         1 UNK         0.3127 
    106 H106       23.6109    2.3212   -6.0546 H         1 UNK         0.0770 
    107 H107       21.9268    1.2620   -8.3846 H         1 UNK         0.0814 
    108 H108       21.6663    2.7608   -7.5086 H         1 UNK         0.0814 
    109 H109       21.4746    1.2231   -6.6806 H         1 UNK         0.0814 
    110 H110       24.4406    1.0322   -9.2598 H         1 UNK         0.2983 
    111 H111       25.6110    3.5604  -10.2174 H         1 UNK         0.0947 
    112 H112       26.2362    2.1611  -12.1867 H         1 UNK         0.0806 
    113 H113       24.5339    1.9604  -11.8068 H         1 UNK         0.0806 
    114 H114       25.6935    0.7094  -11.3563 H         1 UNK         0.0806 
    115 H115       26.5721    1.1037   -8.1178 H         1 UNK         0.3000 
    116 H116       28.4083    0.3957   -7.1226 H         1 UNK         0.0850 
    117 H117       30.2539    1.9519   -6.6926 H         1 UNK         0.0810 
    118 H118       28.7504    2.8478   -6.6597 H         1 UNK         0.0810 
    119 H119       29.8011    2.9573   -8.0667 H         1 UNK         0.0810 
    120 H120       31.2409    1.0573   -8.1941 H         1 UNK         0.3040 
    121 H121       31.5909   -0.1679  -10.6975 H         1 UNK         0.0766 
    122 H122       31.0290   -2.2941   -9.3852 H         1 UNK         0.0812 
    123 H123       32.3366   -1.9183   -8.2660 H         1 UNK         0.0812 
    124 H124       32.6860   -2.2857   -9.9459 H         1 UNK         0.0812 
    125 H125       34.1368   -0.6987  -10.7454 H         1 UNK         0.3205 
    126 H126       35.5302    1.7038   -9.9262 H         1 UNK         0.0754 
    127 H127       37.4055    0.6952  -11.2039 H         1 UNK         0.0769 
    128 H128       35.9200    0.6385  -12.1346 H         1 UNK         0.0769 
    129 H129       36.5252   -0.8204  -11.3488 H         1 UNK         0.0769 
    130 H130       34.7482    0.8505   -7.5976 H         1 UNK         0.2981 
    131 H131       36.6576   -0.8790   -6.2390 H         1 UNK         0.0541 
    132 H132       38.1103    2.8521   -5.8551 H         1 UNK         0.3459 
    133 H133       36.9470    2.4433   -7.0918 H         1 UNK         0.3459 
    134 H134       34.3464    0.7910   -5.1399 H         1 UNK         0.0612 
    135 H135       35.2948   -0.3299   -4.1897 H         1 UNK         0.0612 
    136 H136       32.4041   -0.6066   -3.9997 H         1 UNK         0.0624 
    137 H137       31.8860   -0.1377   -5.6065 H         1 UNK         0.0624 
@<TRIPOS>BOND
     1    1    2 1    
     2    1   72 1    
     3    1   73 1    
     4    1   74 1    
     5    2    3 2    
     6    2    4 am   BACKBONE|DICT|INTERRES
     7    4    5 1    
     8    4   75 1    
     9    5    6 1    
    10    5   35 1    
    11    5   76 1    
    12    6    7 1    
    13    6   77 1    
    14    6   78 1    
    15    7    8 1    
    16    8    9 1    
    17    8   79 1    
    18    8   80 1    
    19    9   10 ar   
    20    9   14 ar   
    21   10   11 ar   
    22   10   81 1    
    23   11   12 ar   
    24   11   71 1    
    25   12   13 ar   
    26   12   82 1    
    27   13   14 ar   
    28   13   15 1    
    29   14   83 1    
    30   15   16 1    
    31   15   84 1    
    32   15   85 1    
    33   16   17 1    
    34   17   18 1    
    35   17   86 1    
    36   17   87 1    
    37   18   19 1    
    38   18   37 1    
    39   18   88 1    
    40   19   20 am   BACKBONE|DICT|INTERRES
    41   19   89 1    
    42   20   21 2    
    43   20   22 1    
    44   22   23 1    
    45   22   24 1    
    46   22   90 1    
    47   23   91 1    
    48   23   92 1    
    49   23   93 1    
    50   24   25 am   BACKBONE|DICT|INTERRES
    51   24   94 1    
    52   25   26 2    
    53   25   27 1    
    54   27   28 1    
    55   27   29 1    
    56   27   95 1    
    57   28   96 1    
    58   28   97 1    
    59   28   98 1    
    60   29   30 am   BACKBONE|DICT|INTERRES
    61   29   99 1    
    62   30   31 2    
    63   30   32 1    
    64   32   33 1    
    65   32   34 1    
    66   32  100 1    
    67   33  101 1    
    68   33  102 1    
    69   33  103 1    
    70   34   35 am   BACKBONE|DICT|INTERRES
    71   34  104 1    
    72   35   36 2    
    73   37   38 2    
    74   37   39 am   BACKBONE|DICT|INTERRES
    75   39   40 1    
    76   39  105 1    
    77   40   41 1    
    78   40   42 1    
    79   40  106 1    
    80   41  107 1    
    81   41  108 1    
    82   41  109 1    
    83   42   43 2    
    84   42   44 am   BACKBONE|DICT|INTERRES
    85   44   45 1    
    86   44  110 1    
    87   45   46 1    
    88   45   47 1    
    89   45  111 1    
    90   46  112 1    
    91   46  113 1    
    92   46  114 1    
    93   47   48 2    
    94   47   49 am   BACKBONE|DICT|INTERRES
    95   49   50 1    
    96   49  115 1    
    97   50   51 1    
    98   50   52 1    
    99   50  116 1    
   100   51  117 1    
   101   51  118 1    
   102   51  119 1    
   103   52   53 2    
   104   52   54 am   BACKBONE|DICT|INTERRES
   105   54   55 1    
   106   54  120 1    
   107   55   56 1    
   108   55   57 1    
   109   55  121 1    
   110   56  122 1    
   111   56  123 1    
   112   56  124 1    
   113   57   58 2    
   114   57   59 am   BACKBONE|DICT|INTERRES
   115   59   60 1    
   116   59  125 1    
   117   60   61 1    
   118   60   62 1    
   119   60  126 1    
   120   61  127 1    
   121   61  128 1    
   122   61  129 1    
   123   62   63 2    
   124   62   64 am   BACKBONE|DICT|INTERRES
   125   64   65 1    
   126   64  130 1    
   127   65   66 1    
   128   65   69 1    
   129   65  131 1    
   130   66   67 am   BACKBONE|DICT|INTERRES
   131   66   68 2    
   132   67  132 1    
   133   67  133 1    
   134   69   70 1    
   135   69  134 1    
   136   69  135 1    
   137   70   71 1    
   138   71  136 1    
   139   71  137 1    
@<TRIPOS>SUBSTRUCTURE
     1 UNK         1 GROUP             0       ****    0 ROOT    
