@<TRIPOS>MOLECULE
3R137
137   139    1
SMALL
USER_CHARGES


@<TRIPOS>ATOM
      1 CA         27.3374   -8.5048   -4.1616 C.3       0 UNK        -0.2020 
      2 C          26.6055   -7.8374   -3.0065 C.2       0 UNK         0.4855 
      3 O          25.5680   -8.3362   -2.5681 O.2       0 UNK        -0.5197 
      4 N          27.1423   -6.7193   -2.5047 N.am      1 UNK        -0.4892 
      5 CA         26.5341   -5.8942   -1.4570 C.3       1 UNK         0.0835 
      6 C6         27.6022   -5.0228   -0.7406 C.3       12 UNK        -0.0855 
      7 S7         28.4302   -3.8211   -1.8387 S.3       12 UNK        -0.2931 
      8 C8         29.4639   -2.9077   -0.6582 C.3       12 UNK         0.0378 
      9 C9         30.2690   -1.8351   -1.3749 C.ar      12 UNK        -0.0802 
     10 C10        31.3352   -2.2047   -2.1996 C.ar      12 UNK        -0.0944 
     11 C11        32.0860   -1.2350   -2.8679 C.ar      12 UNK        -0.0787 
     12 C12        31.7757    0.1159   -2.6927 C.ar      12 UNK        -0.0862 
     13 C13        30.7082    0.5004   -1.8753 C.ar      12 UNK        -0.0733 
     14 C14        29.9593   -0.4800   -1.2163 C.ar      12 UNK        -0.0832 
     15 C15        30.3846    1.9749   -1.6759 C.3       12 UNK         0.0240 
     16 S16        29.0495    2.5471   -2.7750 S.3       12 UNK        -0.2522 
     17 C17        29.8886    2.6063   -4.4015 C.3       12 UNK        -0.0967 
     18 CA         29.1231    1.8674   -5.5279 C.3       5 UNK         0.0660 
     19 N          28.7079    0.5205   -5.1217 N.am      5 UNK        -0.4015 
     20 C          28.1387   -0.3976   -5.9138 C.2       4 UNK         0.4946 
     21 O          28.0045   -0.2542   -7.1286 O.2       4 UNK        -0.5353 
     22 CA         27.5577   -1.6551   -5.2365 C.3       4 UNK         0.0277 
     23 CB         28.5372   -2.8333   -5.3508 C.3       4 UNK        -0.1981 
     24 N          27.1648   -1.4886   -3.8290 N.am      4 UNK        -0.4209 
     25 C          26.3203   -0.5613   -3.3535 C.2       3 UNK         0.4942 
     26 O          25.8060    0.3120   -4.0522 O.2       3 UNK        -0.5208 
     27 CA         26.0225   -0.6172   -1.8449 C.3       3 UNK         0.0250 
     28 CB         25.3482    0.6690   -1.3222 C.3       3 UNK        -0.1990 
     29 N          25.2471   -1.8055   -1.4719 N.am      3 UNK        -0.4232 
     30 C          24.0316   -2.1761   -1.9099 C.2       2 UNK         0.4993 
     31 O          23.3454   -1.5199   -2.6949 O.2       2 UNK        -0.5286 
     32 CA         23.4897   -3.5118   -1.3522 C.3       2 UNK         0.0209 
     33 CB         22.3554   -4.1113   -2.2129 C.3       2 UNK        -0.1931 
     34 N          24.5486   -4.5040   -1.1043 N.am      2 UNK        -0.4546 
     35 C          25.3780   -5.0348   -2.0171 C.2       1 UNK         0.5154 
     36 O          25.2968   -4.8178   -3.2297 O.2       1 UNK        -0.5181 
     37 C          27.9760    2.7407   -6.0900 C.2       5 UNK         0.5014 
     38 O          28.2599    3.6701   -6.8473 O.2       5 UNK        -0.5248 
     39 N          26.7087    2.4282   -5.7696 N.am      6 UNK        -0.4434 
     40 CA         25.5268    3.0699   -6.3577 C.3       6 UNK         0.0363 
     41 CB         24.2665    2.6402   -5.5910 C.3       6 UNK        -0.1936 
     42 C          25.3636    2.7851   -7.8637 C.2       6 UNK         0.5081 
     43 O          24.7110    3.5695   -8.5521 O.2       6 UNK        -0.5248 
     44 N          25.9841    1.7036   -8.3587 N.am      7 UNK        -0.4718 
     45 CA         26.0937    1.3721   -9.7812 C.3       7 UNK         0.0273 
     46 CB         25.9193   -0.1470   -9.9595 C.3       7 UNK        -0.1935 
     47 C          27.4022    1.9059  -10.4043 C.2       7 UNK         0.5018 
     48 O          27.8083    1.4231  -11.4631 O.2       7 UNK        -0.5186 
     49 N          28.0282    2.9032   -9.7571 N.am      8 UNK        -0.4240 
     50 CA         29.2025    3.6639  -10.1922 C.3       8 UNK         0.0235 
     51 CB         28.8451    4.5678  -11.3949 C.3       8 UNK        -0.2000 
     52 C          30.4206    2.7557  -10.4225 C.2       8 UNK         0.4941 
     53 O          30.9349    2.1896   -9.4560 O.2       8 UNK        -0.5273 
     54 N          30.8444    2.6070  -11.6863 N.am      9 UNK        -0.4262 
     55 CA         32.0053    1.8316  -12.1445 C.3       9 UNK         0.0264 
     56 CB         32.1212    1.9690  -13.6718 C.3       9 UNK        -0.1955 
     57 C          32.0212    0.3449  -11.7353 C.2       9 UNK         0.5031 
     58 O          33.0758   -0.2856  -11.8231 O.2       9 UNK        -0.5390 
     59 N          30.8790   -0.1822  -11.2736 N.am      10 UNK        -0.4204 
     60 CA         30.7468   -1.4951  -10.6430 C.3       10 UNK         0.0237 
     61 CB         29.2631   -1.7587  -10.3507 C.3       10 UNK        -0.1985 
     62 C          31.5705   -1.6543   -9.3492 C.2       10 UNK         0.4970 
     63 O          31.9685   -2.7808   -9.0495 O.2       10 UNK        -0.4914 
     64 N          31.8145   -0.5581   -8.6132 N.am      11 UNK        -0.4285 
     65 CA         32.6035   -0.5729   -7.3695 C.3       11 UNK         0.1007 
     66 C          33.3082    0.7677   -7.0204 C.2       11 UNK         0.5703 
     67 N          33.0036    1.8878   -7.6622 N.am      11 UNK        -0.7361 
     68 O          34.1772    0.7928   -6.1533 O.2       11 UNK        -0.4986 
     69 C69        31.7948   -1.1449   -6.1673 C.3       12 UNK        -0.0947 
     70 S70        32.6744   -2.4775   -5.2848 S.3       12 UNK        -0.2240 
     71 C71        33.2422   -1.6474   -3.7669 C.3       12 UNK         0.0194 
     72 H72        26.6909   -8.5518   -5.0375 H         1 UNK         0.0906 
     73 H73        28.2428   -7.9644   -4.4375 H         1 UNK         0.0906 
     74 H74        27.6190   -9.5220   -3.8904 H         1 UNK         0.0906 
     75 H75        27.9716   -6.3255   -2.9268 H         1 UNK         0.3140 
     76 H76        26.1019   -6.5680   -0.7132 H         1 UNK         0.1085 
     77 H77        28.3659   -5.6689   -0.3041 H         1 UNK         0.0836 
     78 H78        27.1592   -4.4866    0.1005 H         1 UNK         0.0836 
     79 H79        30.1417   -3.5991   -0.1552 H         1 UNK         0.0731 
     80 H80        28.8328   -2.4681    0.1159 H         1 UNK         0.0731 
     81 H81        31.5739   -3.2515   -2.3310 H         1 UNK         0.1312 
     82 H82        32.3719    0.8668   -3.1926 H         1 UNK         0.1406 
     83 H83        29.1452   -0.1824   -0.5699 H         1 UNK         0.1631 
     84 H84        31.2729    2.5895   -1.8308 H         1 UNK         0.0717 
     85 H85        30.0802    2.1433   -0.6418 H         1 UNK         0.0717 
     86 H86        30.0635    3.6518   -4.6648 H         1 UNK         0.0934 
     87 H87        30.8847    2.1762   -4.3161 H         1 UNK         0.0934 
     88 H88        29.8191    1.7329   -6.3595 H         1 UNK         0.0739 
     89 H89        28.7641    0.3302   -4.1315 H         1 UNK         0.3093 
     90 H90        26.6514   -1.9148   -5.7870 H         1 UNK         0.0818 
     91 H91        28.0798   -3.7617   -5.0077 H         1 UNK         0.0819 
     92 H92        29.4388   -2.6663   -4.7595 H         1 UNK         0.0819 
     93 H93        28.8448   -2.9904   -6.3856 H         1 UNK         0.0819 
     94 H94        27.5332   -2.1787   -3.1851 H         1 UNK         0.3041 
     95 H95        26.9838   -0.7067   -1.3395 H         1 UNK         0.0784 
     96 H96        25.9622    1.5441   -1.5401 H         1 UNK         0.0793 
     97 H97        24.3740    0.8351   -1.7833 H         1 UNK         0.0793 
     98 H98        25.2064    0.6324   -0.2422 H         1 UNK         0.0793 
     99 H99        25.7134   -2.4406   -0.8406 H         1 UNK         0.3024 
    100 H100       23.0617   -3.2694   -0.3778 H         1 UNK         0.1171 
    101 H101       21.9908   -5.0485   -1.7926 H         1 UNK         0.0786 
    102 H102       21.5051   -3.4304   -2.2677 H         1 UNK         0.0786 
    103 H103       22.6797   -4.3053   -3.2357 H         1 UNK         0.0786 
    104 H104       24.6892   -4.7488   -0.1330 H         1 UNK         0.2977 
    105 H105       26.5266    1.6528   -5.1335 H         1 UNK         0.3127 
    106 H106       25.6432    4.1494   -6.2405 H         1 UNK         0.0770 
    107 H107       24.0743    1.5719   -5.6993 H         1 UNK         0.0814 
    108 H108       23.3863    3.1682   -5.9599 H         1 UNK         0.0814 
    109 H109       24.3541    2.8579   -4.5263 H         1 UNK         0.0814 
    110 H110       26.5307    1.1215   -7.7313 H         1 UNK         0.2983 
    111 H111       25.2844    1.8550  -10.3329 H         1 UNK         0.0947 
    112 H112       26.0315   -0.4442  -11.0029 H         1 UNK         0.0806 
    113 H113       24.9260   -0.4646   -9.6422 H         1 UNK         0.0806 
    114 H114       26.6442   -0.7109   -9.3755 H         1 UNK         0.0806 
    115 H115       27.6731    3.1680   -8.8457 H         1 UNK         0.3000 
    116 H116       29.4704    4.3160   -9.3594 H         1 UNK         0.0850 
    117 H117       29.6992    5.1725  -11.7034 H         1 UNK         0.0810 
    118 H118       28.0463    5.2617  -11.1325 H         1 UNK         0.0810 
    119 H119       28.5074    3.9973  -12.2609 H         1 UNK         0.0810 
    120 H120       30.3208    3.0847  -12.4057 H         1 UNK         0.3040 
    121 H121       32.8888    2.2871  -11.6928 H         1 UNK         0.0766 
    122 H122       32.9952    1.4356  -14.0488 H         1 UNK         0.0812 
    123 H123       32.2293    3.0116  -13.9714 H         1 UNK         0.0812 
    124 H124       31.2467    1.5605  -14.1800 H         1 UNK         0.0812 
    125 H125       30.0599    0.4122  -11.2587 H         1 UNK         0.3205 
    126 H126       31.0994   -2.2423  -11.3568 H         1 UNK         0.0754 
    127 H127       28.8785   -1.0445   -9.6226 H         1 UNK         0.0769 
    128 H128       29.1150   -2.7573   -9.9373 H         1 UNK         0.0769 
    129 H129       28.6548   -1.6842  -11.2525 H         1 UNK         0.0769 
    130 H130       31.4631    0.3427   -8.9209 H         1 UNK         0.2981 
    131 H131       33.4422   -1.2421   -7.5718 H         1 UNK         0.0541 
    132 H132       32.2606    1.9414   -8.3559 H         1 UNK         0.3459 
    133 H133       33.4991    2.7280   -7.4125 H         1 UNK         0.3459 
    134 H134       30.8612   -1.5846   -6.5159 H         1 UNK         0.0612 
    135 H135       31.4895   -0.3622   -5.4722 H         1 UNK         0.0612 
    136 H136       33.8585   -0.7881   -4.0324 H         1 UNK         0.0624 
    137 H137       33.8927   -2.3302   -3.2188 H         1 UNK         0.0624 
@<TRIPOS>BOND
     1    1    2 1    
     2    1   72 1    
     3    1   73 1    
     4    1   74 1    
     5    2    3 2    
     6    2    4 am   BACKBONE|DICT|INTERRES
     7    4    5 1    
     8    4   75 1    
     9    5    6 1    
    10    5   35 1    
    11    5   76 1    
    12    6    7 1    
    13    6   77 1    
    14    6   78 1    
    15    7    8 1    
    16    8    9 1    
    17    8   79 1    
    18    8   80 1    
    19    9   10 ar   
    20    9   14 ar   
    21   10   11 ar   
    22   10   81 1    
    23   11   12 ar   
    24   11   71 1    
    25   12   13 ar   
    26   12   82 1    
    27   13   14 ar   
    28   13   15 1    
    29   14   83 1    
    30   15   16 1    
    31   15   84 1    
    32   15   85 1    
    33   16   17 1    
    34   17   18 1    
    35   17   86 1    
    36   17   87 1    
    37   18   19 1    
    38   18   37 1    
    39   18   88 1    
    40   19   20 am   BACKBONE|DICT|INTERRES
    41   19   89 1    
    42   20   21 2    
    43   20   22 1    
    44   22   23 1    
    45   22   24 1    
    46   22   90 1    
    47   23   91 1    
    48   23   92 1    
    49   23   93 1    
    50   24   25 am   BACKBONE|DICT|INTERRES
    51   24   94 1    
    52   25   26 2    
    53   25   27 1    
    54   27   28 1    
    55   27   29 1    
    56   27   95 1    
    57   28   96 1    
    58   28   97 1    
    59   28   98 1    
    60   29   30 am   BACKBONE|DICT|INTERRES
    61   29   99 1    
    62   30   31 2    
    63   30   32 1    
    64   32   33 1    
    65   32   34 1    
    66   32  100 1    
    67   33  101 1    
    68   33  102 1    
    69   33  103 1    
    70   34   35 am   BACKBONE|DICT|INTERRES
    71   34  104 1    
    72   35   36 2    
    73   37   38 2    
    74   37   39 am   BACKBONE|DICT|INTERRES
    75   39   40 1    
    76   39  105 1    
    77   40   41 1    
    78   40   42 1    
    79   40  106 1    
    80   41  107 1    
    81   41  108 1    
    82   41  109 1    
    83   42   43 2    
    84   42   44 am   BACKBONE|DICT|INTERRES
    85   44   45 1    
    86   44  110 1    
    87   45   46 1    
    88   45   47 1    
    89   45  111 1    
    90   46  112 1    
    91   46  113 1    
    92   46  114 1    
    93   47   48 2    
    94   47   49 am   BACKBONE|DICT|INTERRES
    95   49   50 1    
    96   49  115 1    
    97   50   51 1    
    98   50   52 1    
    99   50  116 1    
   100   51  117 1    
   101   51  118 1    
   102   51  119 1    
   103   52   53 2    
   104   52   54 am   BACKBONE|DICT|INTERRES
   105   54   55 1    
   106   54  120 1    
   107   55   56 1    
   108   55   57 1    
   109   55  121 1    
   110   56  122 1    
   111   56  123 1    
   112   56  124 1    
   113   57   58 2    
   114   57   59 am   BACKBONE|DICT|INTERRES
   115   59   60 1    
   116   59  125 1    
   117   60   61 1    
   118   60   62 1    
   119   60  126 1    
   120   61  127 1    
   121   61  128 1    
   122   61  129 1    
   123   62   63 2    
   124   62   64 am   BACKBONE|DICT|INTERRES
   125   64   65 1    
   126   64  130 1    
   127   65   66 1    
   128   65   69 1    
   129   65  131 1    
   130   66   67 am   BACKBONE|DICT|INTERRES
   131   66   68 2    
   132   67  132 1    
   133   67  133 1    
   134   69   70 1    
   135   69  134 1    
   136   69  135 1    
   137   70   71 1    
   138   71  136 1    
   139   71  137 1    
@<TRIPOS>SUBSTRUCTURE
     1 UNK         1 GROUP             0       ****    0 ROOT    
