@<TRIPOS>MOLECULE
3R137
137   139    1
SMALL
USER_CHARGES


@<TRIPOS>ATOM
      1 CA         30.7642   -3.6621   -1.3361 C.3       0 UNK        -0.2020 
      2 C          29.6553   -2.7561   -0.8274 C.2       0 UNK         0.4855 
      3 O          29.1749   -2.9497    0.2895 O.2       0 UNK        -0.5197 
      4 N          29.2300   -1.7790   -1.6414 N.am      1 UNK        -0.4892 
      5 CA         28.1320   -0.8516   -1.3209 C.3       1 UNK         0.0835 
      6 C6         28.1450    0.4120   -2.2166 C.3       12 UNK        -0.0855 
      7 S7         29.6635    1.3944   -1.9604 S.3       12 UNK        -0.2931 
      8 C8         30.4075    1.4342   -3.6210 C.3       12 UNK         0.0378 
      9 C9         30.8346    0.0550   -4.1027 C.ar      12 UNK        -0.0802 
     10 C10        31.9440   -0.5832   -3.5412 C.ar      12 UNK        -0.0944 
     11 C11        32.3493   -1.8409   -4.0007 C.ar      12 UNK        -0.0787 
     12 C12        31.6253   -2.4649   -5.0232 C.ar      12 UNK        -0.0862 
     13 C13        30.5238   -1.8278   -5.6036 C.ar      12 UNK        -0.0733 
     14 C14        30.1365   -0.5708   -5.1364 C.ar      12 UNK        -0.0832 
     15 C15        29.7915   -2.4623   -6.7785 C.3       12 UNK         0.0240 
     16 S16        28.4446   -3.5833   -6.2729 S.3       12 UNK        -0.2522 
     17 C17        27.1682   -2.4743   -5.5833 C.3       12 UNK        -0.0967 
     18 CA         26.3256   -1.7247   -6.6592 C.3       5 UNK         0.0660 
     19 N          24.8785   -1.9226   -6.4883 N.am      5 UNK        -0.4015 
     20 C          23.9352   -1.4125   -7.2994 C.2       4 UNK         0.4946 
     21 O          24.1892   -0.8171   -8.3467 O.2       4 UNK        -0.5353 
     22 CA         22.4633   -1.5187   -6.8570 C.3       4 UNK         0.0277 
     23 CB         21.7613   -2.6629   -7.6054 C.3       4 UNK        -0.1981 
     24 N          22.2638   -1.6928   -5.4150 N.am      4 UNK        -0.4209 
     25 C          22.7267   -0.8933   -4.4424 C.2       3 UNK         0.4942 
     26 O          23.3848    0.1275   -4.6447 O.2       3 UNK        -0.5208 
     27 CA         22.4752   -1.3470   -2.9940 C.3       3 UNK         0.0250 
     28 CB         21.2309   -2.2496   -2.8350 C.3       3 UNK        -0.1990 
     29 N          23.6524   -2.0007   -2.4085 N.am      3 UNK        -0.4232 
     30 C          24.3488   -3.0364   -2.8996 C.2       2 UNK         0.4993 
     31 O          24.1471   -3.5446   -4.0049 O.2       2 UNK        -0.5286 
     32 CA         25.4768   -3.5814   -2.0065 C.3       2 UNK         0.0209 
     33 CB         25.9263   -4.9941   -2.4264 C.3       2 UNK        -0.1931 
     34 N          26.6483   -2.7056   -1.9893 N.am      2 UNK        -0.4546 
     35 C          26.7468   -1.5369   -1.3395 C.2       1 UNK         0.5154 
     36 O          25.8043   -1.0138   -0.7421 O.2       1 UNK        -0.5181 
     37 C          26.7103   -0.2284   -6.7083 C.2       5 UNK         0.5014 
     38 O          27.6159    0.1325   -7.4552 O.2       5 UNK        -0.5248 
     39 N          26.0105    0.6321   -5.9501 N.am      6 UNK        -0.4434 
     40 CA         26.2717    2.0752   -5.8817 C.3       6 UNK         0.0363 
     41 CB         25.4333    2.6932   -4.7524 C.3       6 UNK        -0.1936 
     42 C          26.0476    2.8348   -7.2058 C.2       6 UNK         0.5081 
     43 O          26.5370    3.9567   -7.3357 O.2       6 UNK        -0.5248 
     44 N          25.3486    2.2224   -8.1743 N.am      7 UNK        -0.4718 
     45 CA         25.1942    2.7445   -9.5360 C.3       7 UNK         0.0273 
     46 CB         24.0411    2.0059  -10.2340 C.3       7 UNK        -0.1935 
     47 C          26.4837    2.6466  -10.3766 C.2       7 UNK         0.5018 
     48 O          26.5981    3.3564  -11.3767 O.2       7 UNK        -0.5186 
     49 N          27.4256    1.7874   -9.9668 N.am      8 UNK        -0.4240 
     50 CA         28.7368    1.6024  -10.5815 C.3       8 UNK         0.0235 
     51 CB         28.6898    0.4020  -11.5463 C.3       8 UNK        -0.2000 
     52 C          29.7484    1.4260   -9.4435 C.2       8 UNK         0.4941 
     53 O          30.2919    0.3353   -9.2628 O.2       8 UNK        -0.5273 
     54 N          29.9167    2.4934   -8.6498 N.am      9 UNK        -0.4262 
     55 CA         30.6446    2.5325   -7.3782 C.3       9 UNK         0.0264 
     56 CB         30.2576    3.8215   -6.6283 C.3       9 UNK        -0.1955 
     57 C          32.1731    2.3572   -7.5009 C.2       9 UNK         0.5031 
     58 O          32.9310    3.2566   -7.1310 O.2       9 UNK        -0.5390 
     59 N          32.5980    1.1944   -7.9964 N.am      10 UNK        -0.4204 
     60 CA         33.9748    0.7197   -8.0301 C.3       10 UNK         0.0237 
     61 CB         34.6159    1.0594   -9.3863 C.3       10 UNK        -0.1985 
     62 C          33.9444   -0.7919   -7.7888 C.2       10 UNK         0.4970 
     63 O          33.0633   -1.4725   -8.3189 O.2       10 UNK        -0.4914 
     64 N          34.9026   -1.2885   -7.0008 N.am      11 UNK        -0.4285 
     65 CA         34.9797   -2.7002   -6.5904 C.3       11 UNK         0.1007 
     66 C          35.5647   -3.6623   -7.6653 C.2       11 UNK         0.5703 
     67 N          36.0896   -3.1746   -8.7834 N.am      11 UNK        -0.7361 
     68 O          35.5339   -4.8772   -7.4837 O.2       11 UNK        -0.4986 
     69 C69        35.6985   -2.8763   -5.2260 C.3       12 UNK        -0.0947 
     70 S70        35.1195   -1.7467   -3.9123 S.3       12 UNK        -0.2240 
     71 C71        33.5609   -2.5200   -3.3751 C.3       12 UNK         0.0194 
     72 H72        30.5742   -4.6934   -1.0396 H         1 UNK         0.0906 
     73 H73        30.8361   -3.6389   -2.4224 H         1 UNK         0.0906 
     74 H74        31.7207   -3.3581   -0.9132 H         1 UNK         0.0906 
     75 H75        29.7012   -1.6184   -2.5221 H         1 UNK         0.3140 
     76 H76        28.2785   -0.5201   -0.2900 H         1 UNK         0.1085 
     77 H77        27.2994    1.0598   -1.9762 H         1 UNK         0.0836 
     78 H78        28.0303    0.1489   -3.2687 H         1 UNK         0.0836 
     79 H79        31.2784    2.0911   -3.6022 H         1 UNK         0.0731 
     80 H80        29.6977    1.8893   -4.3132 H         1 UNK         0.0731 
     81 H81        32.4964   -0.0974   -2.7481 H         1 UNK         0.1312 
     82 H82        31.9268   -3.4390   -5.3824 H         1 UNK         0.1406 
     83 H83        29.2983   -0.0684   -5.5923 H         1 UNK         0.1631 
     84 H84        30.5048   -3.0319   -7.3763 H         1 UNK         0.0717 
     85 H85        29.4053   -1.6954   -7.4494 H         1 UNK         0.0717 
     86 H86        26.5240   -3.1241   -4.9937 H         1 UNK         0.0934 
     87 H87        27.6217   -1.8060   -4.8503 H         1 UNK         0.0934 
     88 H88        26.5623   -2.1352   -7.6432 H         1 UNK         0.0739 
     89 H89        24.5773   -2.4293   -5.6610 H         1 UNK         0.3093 
     90 H90        21.9808   -0.5797   -7.1354 H         1 UNK         0.0818 
     91 H91        21.8684   -2.5473   -8.6851 H         1 UNK         0.0819 
     92 H92        22.1786   -3.6348   -7.3387 H         1 UNK         0.0819 
     93 H93        20.6929   -2.6836   -7.3895 H         1 UNK         0.0819 
     94 H94        21.7877   -2.5366   -5.1300 H         1 UNK         0.3041 
     95 H95        22.3009   -0.4381   -2.4158 H         1 UNK         0.0784 
     96 H96        20.3482   -1.7879   -3.2800 H         1 UNK         0.0793 
     97 H97        21.3637   -3.2293   -3.2956 H         1 UNK         0.0793 
     98 H98        21.0051   -2.4152   -1.7814 H         1 UNK         0.0793 
     99 H99        24.0054   -1.5836   -1.5526 H         1 UNK         0.3024 
    100 H100       25.0811   -3.6515   -0.9903 H         1 UNK         0.1171 
    101 H101       26.6544   -5.4026   -1.7253 H         1 UNK         0.0786 
    102 H102       25.0798   -5.6819   -2.4485 H         1 UNK         0.0786 
    103 H103       26.3773   -5.0023   -3.4194 H         1 UNK         0.0786 
    104 H104       27.4796   -3.0564   -2.4414 H         1 UNK         0.2977 
    105 H105       25.2110    0.2971   -5.4183 H         1 UNK         0.3127 
    106 H106       27.3253    2.1998   -5.6229 H         1 UNK         0.0770 
    107 H107       24.3653    2.6274   -4.9632 H         1 UNK         0.0814 
    108 H108       25.6739    3.7490   -4.6207 H         1 UNK         0.0814 
    109 H109       25.6191    2.1975   -3.7995 H         1 UNK         0.0814 
    110 H110       24.9885    1.2908   -8.0034 H         1 UNK         0.2983 
    111 H111       24.9299    3.8022   -9.4681 H         1 UNK         0.0947 
    112 H112       24.2656    0.9477  -10.3723 H         1 UNK         0.0806 
    113 H113       23.8492    2.4282  -11.2213 H         1 UNK         0.0806 
    114 H114       23.1151    2.0814   -9.6636 H         1 UNK         0.0806 
    115 H115       27.2772    1.2632   -9.1078 H         1 UNK         0.3000 
    116 H116       29.0265    2.4931  -11.1434 H         1 UNK         0.0850 
    117 H117       29.6672    0.2252  -11.9967 H         1 UNK         0.0810 
    118 H118       27.9830    0.5746  -12.3580 H         1 UNK         0.0810 
    119 H119       28.3938   -0.5143  -11.0336 H         1 UNK         0.0810 
    120 H120       29.4223    3.3393   -8.8949 H         1 UNK         0.3040 
    121 H121       30.2870    1.6930   -6.7830 H         1 UNK         0.0766 
    122 H122       29.1846    3.8687   -6.4435 H         1 UNK         0.0812 
    123 H123       30.5415    4.7133   -7.1882 H         1 UNK         0.0812 
    124 H124       30.7524    3.8763   -5.6577 H         1 UNK         0.0812 
    125 H125       31.8978    0.5264   -8.3229 H         1 UNK         0.3205 
    126 H126       34.5449    1.1947   -7.2285 H         1 UNK         0.0754 
    127 H127       35.6474    0.7078   -9.4311 H         1 UNK         0.0769 
    128 H128       34.6319    2.1361   -9.5566 H         1 UNK         0.0769 
    129 H129       34.0743    0.5981  -10.2134 H         1 UNK         0.0769 
    130 H130       35.5984   -0.6735   -6.6058 H         1 UNK         0.2981 
    131 H131       33.9568   -3.0457   -6.4451 H         1 UNK         0.0541 
    132 H132       36.1132   -2.1811   -8.9453 H         1 UNK         0.3459 
    133 H133       36.4605   -3.8092   -9.4729 H         1 UNK         0.3459 
    134 H134       35.5989   -3.9028   -4.8686 H         1 UNK         0.0612 
    135 H135       36.7696   -2.7045   -5.3468 H         1 UNK         0.0612 
    136 H136       33.5701   -3.5883   -3.5956 H         1 UNK         0.0624 
    137 H137       33.4960   -2.4340   -2.2900 H         1 UNK         0.0624 
@<TRIPOS>BOND
     1    1    2 1    
     2    1   72 1    
     3    1   73 1    
     4    1   74 1    
     5    2    3 2    
     6    2    4 am   BACKBONE|DICT|INTERRES
     7    4    5 1    
     8    4   75 1    
     9    5    6 1    
    10    5   35 1    
    11    5   76 1    
    12    6    7 1    
    13    6   77 1    
    14    6   78 1    
    15    7    8 1    
    16    8    9 1    
    17    8   79 1    
    18    8   80 1    
    19    9   10 ar   
    20    9   14 ar   
    21   10   11 ar   
    22   10   81 1    
    23   11   12 ar   
    24   11   71 1    
    25   12   13 ar   
    26   12   82 1    
    27   13   14 ar   
    28   13   15 1    
    29   14   83 1    
    30   15   16 1    
    31   15   84 1    
    32   15   85 1    
    33   16   17 1    
    34   17   18 1    
    35   17   86 1    
    36   17   87 1    
    37   18   19 1    
    38   18   37 1    
    39   18   88 1    
    40   19   20 am   BACKBONE|DICT|INTERRES
    41   19   89 1    
    42   20   21 2    
    43   20   22 1    
    44   22   23 1    
    45   22   24 1    
    46   22   90 1    
    47   23   91 1    
    48   23   92 1    
    49   23   93 1    
    50   24   25 am   BACKBONE|DICT|INTERRES
    51   24   94 1    
    52   25   26 2    
    53   25   27 1    
    54   27   28 1    
    55   27   29 1    
    56   27   95 1    
    57   28   96 1    
    58   28   97 1    
    59   28   98 1    
    60   29   30 am   BACKBONE|DICT|INTERRES
    61   29   99 1    
    62   30   31 2    
    63   30   32 1    
    64   32   33 1    
    65   32   34 1    
    66   32  100 1    
    67   33  101 1    
    68   33  102 1    
    69   33  103 1    
    70   34   35 am   BACKBONE|DICT|INTERRES
    71   34  104 1    
    72   35   36 2    
    73   37   38 2    
    74   37   39 am   BACKBONE|DICT|INTERRES
    75   39   40 1    
    76   39  105 1    
    77   40   41 1    
    78   40   42 1    
    79   40  106 1    
    80   41  107 1    
    81   41  108 1    
    82   41  109 1    
    83   42   43 2    
    84   42   44 am   BACKBONE|DICT|INTERRES
    85   44   45 1    
    86   44  110 1    
    87   45   46 1    
    88   45   47 1    
    89   45  111 1    
    90   46  112 1    
    91   46  113 1    
    92   46  114 1    
    93   47   48 2    
    94   47   49 am   BACKBONE|DICT|INTERRES
    95   49   50 1    
    96   49  115 1    
    97   50   51 1    
    98   50   52 1    
    99   50  116 1    
   100   51  117 1    
   101   51  118 1    
   102   51  119 1    
   103   52   53 2    
   104   52   54 am   BACKBONE|DICT|INTERRES
   105   54   55 1    
   106   54  120 1    
   107   55   56 1    
   108   55   57 1    
   109   55  121 1    
   110   56  122 1    
   111   56  123 1    
   112   56  124 1    
   113   57   58 2    
   114   57   59 am   BACKBONE|DICT|INTERRES
   115   59   60 1    
   116   59  125 1    
   117   60   61 1    
   118   60   62 1    
   119   60  126 1    
   120   61  127 1    
   121   61  128 1    
   122   61  129 1    
   123   62   63 2    
   124   62   64 am   BACKBONE|DICT|INTERRES
   125   64   65 1    
   126   64  130 1    
   127   65   66 1    
   128   65   69 1    
   129   65  131 1    
   130   66   67 am   BACKBONE|DICT|INTERRES
   131   66   68 2    
   132   67  132 1    
   133   67  133 1    
   134   69   70 1    
   135   69  134 1    
   136   69  135 1    
   137   70   71 1    
   138   71  136 1    
   139   71  137 1    
@<TRIPOS>SUBSTRUCTURE
     1 UNK         1 GROUP             0       ****    0 ROOT    
