@<TRIPOS>MOLECULE
3R137
137   139    1
SMALL
USER_CHARGES


@<TRIPOS>ATOM
      1 CA         23.0727   -5.4356   -2.6165 C.3       0 UNK        -0.2020 
      2 C          24.1517   -4.9167   -1.6771 C.2       0 UNK         0.4855 
      3 O          23.8661   -4.6448   -0.5103 O.2       0 UNK        -0.5197 
      4 N          25.3866   -4.7864   -2.1782 N.am      1 UNK        -0.4892 
      5 CA         26.5322   -4.2157   -1.4614 C.3       1 UNK         0.0835 
      6 C6         27.8512   -4.9272   -1.8676 C.3       12 UNK        -0.0855 
      7 S7         29.1326   -4.8522   -0.5629 S.3       12 UNK        -0.2931 
      8 C8         30.5470   -5.6783   -1.3612 C.3       12 UNK         0.0378 
      9 C9         31.0321   -4.9110   -2.5816 C.ar      12 UNK        -0.0802 
     10 C10        31.9074   -3.8282   -2.4428 C.ar      12 UNK        -0.0944 
     11 C11        32.3186   -3.1022   -3.5661 C.ar      12 UNK        -0.0787 
     12 C12        31.8549   -3.4727   -4.8309 C.ar      12 UNK        -0.0862 
     13 C13        30.9524   -4.5288   -4.9739 C.ar      12 UNK        -0.0733 
     14 C14        30.5721   -5.2663   -3.8521 C.ar      12 UNK        -0.0832 
     15 C15        30.3191   -4.8219   -6.3232 C.3       12 UNK         0.0240 
     16 S16        28.6493   -4.0943   -6.4080 S.3       12 UNK        -0.2522 
     17 C17        29.0339   -2.3200   -6.2353 C.3       12 UNK        -0.0967 
     18 CA         27.9408   -1.4361   -6.8715 C.3       5 UNK         0.0660 
     19 N          26.7528   -1.3478   -6.0236 N.am      5 UNK        -0.4015 
     20 C          25.4958   -1.2852   -6.4801 C.2       4 UNK         0.4946 
     21 O          25.1911   -1.3459   -7.6716 O.2       4 UNK        -0.5353 
     22 CA         24.3857   -1.1054   -5.4291 C.3       4 UNK         0.0277 
     23 CB         23.8974   -2.4727   -4.9246 C.3       4 UNK        -0.1981 
     24 N          24.7972   -0.2808   -4.2887 N.am      4 UNK        -0.4209 
     25 C          25.1084    1.0217   -4.3769 C.2       3 UNK         0.4942 
     26 O          25.0715    1.6646   -5.4258 O.2       3 UNK        -0.5208 
     27 CA         25.5866    1.7234   -3.0942 C.3       3 UNK         0.0250 
     28 CB         24.3860    2.2922   -2.3218 C.3       3 UNK        -0.1990 
     29 N          26.3864    0.8875   -2.1958 N.am      3 UNK        -0.4232 
     30 C          27.4581    0.1481   -2.5185 C.2       2 UNK         0.4993 
     31 O          27.9122    0.0484   -3.6597 O.2       2 UNK        -0.5286 
     32 CA         28.1024   -0.6620   -1.3796 C.3       2 UNK         0.0209 
     33 CB         27.7983   -0.1026    0.0275 C.3       2 UNK        -0.1931 
     34 N          27.7647   -2.0903   -1.4177 N.am      2 UNK        -0.4546 
     35 C          26.5749   -2.6754   -1.6303 C.2       1 UNK         0.5154 
     36 O          25.5489   -2.0577   -1.9333 O.2       1 UNK        -0.5181 
     37 C          28.4766   -0.0337   -7.2057 C.2       5 UNK         0.5014 
     38 O          28.9851    0.1558   -8.3107 O.2       5 UNK        -0.5248 
     39 N          28.3454    0.9407   -6.2924 N.am      6 UNK        -0.4434 
     40 CA         28.7052    2.3439   -6.5322 C.3       6 UNK         0.0363 
     41 CB         28.5739    3.1607   -5.2404 C.3       6 UNK        -0.1936 
     42 C          27.8867    2.9810   -7.6677 C.2       6 UNK         0.5081 
     43 O          28.4529    3.7152   -8.4759 O.2       6 UNK        -0.5248 
     44 N          26.5981    2.6225   -7.7678 N.am      7 UNK        -0.4718 
     45 CA         25.7089    2.9833   -8.8791 C.3       7 UNK         0.0273 
     46 CB         24.2835    2.5079   -8.5560 C.3       7 UNK        -0.1935 
     47 C          26.1582    2.4324  -10.2481 C.2       7 UNK         0.5018 
     48 O          25.8208    3.0251  -11.2732 O.2       7 UNK        -0.5186 
     49 N          26.9220    1.3315  -10.2410 N.am      8 UNK        -0.4240 
     50 CA         27.5462    0.7211  -11.4168 C.3       8 UNK         0.0235 
     51 CB         27.4508   -0.8097  -11.2801 C.3       8 UNK        -0.2000 
     52 C          29.0123    1.1647  -11.6007 C.2       8 UNK         0.4941 
     53 O          29.6772    0.6495  -12.5001 O.2       8 UNK        -0.5273 
     54 N          29.5003    2.0805  -10.7463 N.am      9 UNK        -0.4262 
     55 CA         30.8749    2.5911  -10.6567 C.3       9 UNK         0.0264 
     56 CB         31.2765    3.3437  -11.9434 C.3       9 UNK        -0.1955 
     57 C          31.9178    1.5335  -10.2356 C.2       9 UNK         0.5031 
     58 O          33.1117    1.7428  -10.4570 O.2       9 UNK        -0.5390 
     59 N          31.4698    0.4371   -9.6085 N.am      10 UNK        -0.4204 
     60 CA         32.3149   -0.6546   -9.1156 C.3       10 UNK         0.0237 
     61 CB         31.5825   -1.9897   -9.3381 C.3       10 UNK        -0.1985 
     62 C          32.7255   -0.4787   -7.6411 C.2       10 UNK         0.4970 
     63 O          33.5941   -1.2163   -7.1759 O.2       10 UNK        -0.4914 
     64 N          32.1127    0.4808   -6.9370 N.am      11 UNK        -0.4285 
     65 CA         32.4023    0.8411   -5.5387 C.3       11 UNK         0.1007 
     66 C          32.3946    2.3804   -5.3046 C.2       11 UNK         0.5703 
     67 N          32.5487    3.2000   -6.3392 N.am      11 UNK        -0.7361 
     68 O          32.2522    2.8483   -4.1784 O.2       11 UNK        -0.4986 
     69 C69        31.5074    0.0439   -4.5459 C.3       12 UNK        -0.0947 
     70 S70        32.3516   -0.3788   -2.9829 S.3       12 UNK        -0.2240 
     71 C71        33.2489   -1.9069   -3.4166 C.3       12 UNK         0.0194 
     72 H72        22.6382   -6.3528   -2.2197 H         1 UNK         0.0906 
     73 H73        22.2778   -4.6970   -2.7167 H         1 UNK         0.0906 
     74 H74        23.4636   -5.6484   -3.6114 H         1 UNK         0.0906 
     75 H75        25.5489   -5.0092   -3.1497 H         1 UNK         0.3140 
     76 H76        26.3794   -4.3916   -0.3939 H         1 UNK         0.1085 
     77 H77        27.6623   -5.9851   -2.0587 H         1 UNK         0.0836 
     78 H78        28.2289   -4.5166   -2.8050 H         1 UNK         0.0836 
     79 H79        30.2662   -6.6973   -1.6328 H         1 UNK         0.0731 
     80 H80        31.3590   -5.7689   -0.6380 H         1 UNK         0.0731 
     81 H81        32.2528   -3.5384   -1.4596 H         1 UNK         0.1312 
     82 H82        32.1601   -2.9064   -5.6996 H         1 UNK         0.1406 
     83 H83        29.8709   -6.0825   -3.9634 H         1 UNK         0.1631 
     84 H84        30.2498   -5.9000   -6.4752 H         1 UNK         0.0717 
     85 H85        30.9332   -4.4332   -7.1371 H         1 UNK         0.0717 
     86 H86        29.1587   -2.0867   -5.1758 H         1 UNK         0.0934 
     87 H87        30.0013   -2.1402   -6.7042 H         1 UNK         0.0934 
     88 H88        27.6658   -1.8849   -7.8290 H         1 UNK         0.0739 
     89 H89        26.9193   -1.2261   -5.0319 H         1 UNK         0.3093 
     90 H90        23.5488   -0.6016   -5.9177 H         1 UNK         0.0818 
     91 H91        23.5303   -3.0847   -5.7496 H         1 UNK         0.0819 
     92 H92        24.6977   -3.0290   -4.4368 H         1 UNK         0.0819 
     93 H93        23.0803   -2.3658   -4.2109 H         1 UNK         0.0819 
     94 H94        24.9033   -0.7502   -3.3935 H         1 UNK         0.3041 
     95 H95        26.2163    2.5611   -3.3895 H         1 UNK         0.0784 
     96 H96        23.7816    2.9386   -2.9602 H         1 UNK         0.0793 
     97 H97        23.7344    1.5008   -1.9489 H         1 UNK         0.0793 
     98 H98        24.7080    2.8924   -1.4706 H         1 UNK         0.0793 
     99 H99        26.0777    0.8516   -1.2353 H         1 UNK         0.3024 
    100 H100       29.1800   -0.5902   -1.5405 H         1 UNK         0.1171 
    101 H101       28.4050   -0.6037    0.7821 H         1 UNK         0.0786 
    102 H102       28.0303    0.9617    0.0915 H         1 UNK         0.0786 
    103 H103       26.7534   -0.2379    0.3096 H         1 UNK         0.0786 
    104 H104       28.5345   -2.7164   -1.2114 H         1 UNK         0.2977 
    105 H105       28.0026    0.7019   -5.3634 H         1 UNK         0.3127 
    106 H106       29.7524    2.3634   -6.8354 H         1 UNK         0.0770 
    107 H107       27.5306    3.3321   -4.9821 H         1 UNK         0.0814 
    108 H108       29.0387    4.1403   -5.3582 H         1 UNK         0.0814 
    109 H109       29.0617    2.6700   -4.3978 H         1 UNK         0.0814 
    110 H110       26.1866    2.0690   -7.0205 H         1 UNK         0.2983 
    111 H111       25.7003    4.0726   -8.9564 H         1 UNK         0.0947 
    112 H112       23.5912    2.7657   -9.3587 H         1 UNK         0.0806 
    113 H113       23.9083    2.9727   -7.6441 H         1 UNK         0.0806 
    114 H114       24.2416    1.4260   -8.4208 H         1 UNK         0.0806 
    115 H115       27.1778    0.9294   -9.3482 H         1 UNK         0.3000 
    116 H116       27.0049    1.0158  -12.3183 H         1 UNK         0.0850 
    117 H117       27.8280   -1.3074  -12.1744 H         1 UNK         0.0810 
    118 H118       26.4185   -1.1325  -11.1430 H         1 UNK         0.0810 
    119 H119       28.0316   -1.1790  -10.4345 H         1 UNK         0.0810 
    120 H120       28.8712    2.4555  -10.0441 H         1 UNK         0.3040 
    121 H121       30.8609    3.3229   -9.8478 H         1 UNK         0.0766 
    122 H122       31.3951    2.6667  -12.7897 H         1 UNK         0.0812 
    123 H123       32.2252    3.8655  -11.8123 H         1 UNK         0.0812 
    124 H124       30.5323    4.0929  -12.2134 H         1 UNK         0.0812 
    125 H125       30.4734    0.3572   -9.4108 H         1 UNK         0.3205 
    126 H126       33.2407   -0.6887   -9.6938 H         1 UNK         0.0754 
    127 H127       32.1401   -2.8257   -8.9134 H         1 UNK         0.0769 
    128 H128       31.4611   -2.1923  -10.4023 H         1 UNK         0.0769 
    129 H129       30.5893   -1.9930   -8.8921 H         1 UNK         0.0769 
    130 H130       31.4069    1.0358   -7.3962 H         1 UNK         0.2981 
    131 H131       33.4407    0.5638   -5.3495 H         1 UNK         0.0541 
    132 H132       32.5470    4.1941   -6.1730 H         1 UNK         0.3459 
    133 H133       32.7610    2.8470   -7.2577 H         1 UNK         0.3459 
    134 H134       31.1680   -0.8824   -4.9991 H         1 UNK         0.0612 
    135 H135       30.5941    0.5933   -4.3124 H         1 UNK         0.0612 
    136 H136       33.8185   -1.7465   -4.3334 H         1 UNK         0.0624 
    137 H137       33.9823   -2.1137   -2.6360 H         1 UNK         0.0624 
@<TRIPOS>BOND
     1    1    2 1    
     2    1   72 1    
     3    1   73 1    
     4    1   74 1    
     5    2    3 2    
     6    2    4 am   BACKBONE|DICT|INTERRES
     7    4    5 1    
     8    4   75 1    
     9    5    6 1    
    10    5   35 1    
    11    5   76 1    
    12    6    7 1    
    13    6   77 1    
    14    6   78 1    
    15    7    8 1    
    16    8    9 1    
    17    8   79 1    
    18    8   80 1    
    19    9   10 ar   
    20    9   14 ar   
    21   10   11 ar   
    22   10   81 1    
    23   11   12 ar   
    24   11   71 1    
    25   12   13 ar   
    26   12   82 1    
    27   13   14 ar   
    28   13   15 1    
    29   14   83 1    
    30   15   16 1    
    31   15   84 1    
    32   15   85 1    
    33   16   17 1    
    34   17   18 1    
    35   17   86 1    
    36   17   87 1    
    37   18   19 1    
    38   18   37 1    
    39   18   88 1    
    40   19   20 am   BACKBONE|DICT|INTERRES
    41   19   89 1    
    42   20   21 2    
    43   20   22 1    
    44   22   23 1    
    45   22   24 1    
    46   22   90 1    
    47   23   91 1    
    48   23   92 1    
    49   23   93 1    
    50   24   25 am   BACKBONE|DICT|INTERRES
    51   24   94 1    
    52   25   26 2    
    53   25   27 1    
    54   27   28 1    
    55   27   29 1    
    56   27   95 1    
    57   28   96 1    
    58   28   97 1    
    59   28   98 1    
    60   29   30 am   BACKBONE|DICT|INTERRES
    61   29   99 1    
    62   30   31 2    
    63   30   32 1    
    64   32   33 1    
    65   32   34 1    
    66   32  100 1    
    67   33  101 1    
    68   33  102 1    
    69   33  103 1    
    70   34   35 am   BACKBONE|DICT|INTERRES
    71   34  104 1    
    72   35   36 2    
    73   37   38 2    
    74   37   39 am   BACKBONE|DICT|INTERRES
    75   39   40 1    
    76   39  105 1    
    77   40   41 1    
    78   40   42 1    
    79   40  106 1    
    80   41  107 1    
    81   41  108 1    
    82   41  109 1    
    83   42   43 2    
    84   42   44 am   BACKBONE|DICT|INTERRES
    85   44   45 1    
    86   44  110 1    
    87   45   46 1    
    88   45   47 1    
    89   45  111 1    
    90   46  112 1    
    91   46  113 1    
    92   46  114 1    
    93   47   48 2    
    94   47   49 am   BACKBONE|DICT|INTERRES
    95   49   50 1    
    96   49  115 1    
    97   50   51 1    
    98   50   52 1    
    99   50  116 1    
   100   51  117 1    
   101   51  118 1    
   102   51  119 1    
   103   52   53 2    
   104   52   54 am   BACKBONE|DICT|INTERRES
   105   54   55 1    
   106   54  120 1    
   107   55   56 1    
   108   55   57 1    
   109   55  121 1    
   110   56  122 1    
   111   56  123 1    
   112   56  124 1    
   113   57   58 2    
   114   57   59 am   BACKBONE|DICT|INTERRES
   115   59   60 1    
   116   59  125 1    
   117   60   61 1    
   118   60   62 1    
   119   60  126 1    
   120   61  127 1    
   121   61  128 1    
   122   61  129 1    
   123   62   63 2    
   124   62   64 am   BACKBONE|DICT|INTERRES
   125   64   65 1    
   126   64  130 1    
   127   65   66 1    
   128   65   69 1    
   129   65  131 1    
   130   66   67 am   BACKBONE|DICT|INTERRES
   131   66   68 2    
   132   67  132 1    
   133   67  133 1    
   134   69   70 1    
   135   69  134 1    
   136   69  135 1    
   137   70   71 1    
   138   71  136 1    
   139   71  137 1    
@<TRIPOS>SUBSTRUCTURE
     1 UNK         1 GROUP             0       ****    0 ROOT    
