@<TRIPOS>MOLECULE
3R137
137   139    1
SMALL
USER_CHARGES


@<TRIPOS>ATOM
      1 CA         30.2050    0.8515   -0.7839 C.3       0 UNK        -0.2020 
      2 C          29.4341   -0.3690   -1.2627 C.2       0 UNK         0.4855 
      3 O          29.1854   -0.4983   -2.4601 O.2       0 UNK        -0.5197 
      4 N          29.0644   -1.2656   -0.3388 N.am      1 UNK        -0.4892 
      5 CA         28.3253   -2.4981   -0.6305 C.3       1 UNK         0.0835 
      6 C6         28.3551   -3.5100    0.5466 C.3       12 UNK        -0.0855 
      7 S7         30.0207   -3.8594    1.2059 S.3       12 UNK        -0.2931 
      8 C8         30.6053   -5.1790    0.0912 C.3       12 UNK         0.0378 
      9 C9         30.9506   -4.6452   -1.2927 C.ar      12 UNK        -0.0802 
     10 C10        31.9094   -3.6358   -1.4317 C.ar      12 UNK        -0.0944 
     11 C11        32.2260   -3.1146   -2.6888 C.ar      12 UNK        -0.0787 
     12 C12        31.5993   -3.6498   -3.8177 C.ar      12 UNK        -0.0862 
     13 C13        30.6182   -4.6378   -3.6962 C.ar      12 UNK        -0.0733 
     14 C14        30.3056   -5.1429   -2.4304 C.ar      12 UNK        -0.0832 
     15 C15        29.8855   -5.1376   -4.9355 C.3       12 UNK         0.0240 
     16 S16        28.2094   -4.4285   -5.0764 S.3       12 UNK        -0.2522 
     17 C17        28.5435   -2.6364   -5.1753 C.3       12 UNK        -0.0967 
     18 CA         27.9770   -1.9525   -6.4448 C.3       5 UNK         0.0660 
     19 N          26.5286   -2.1083   -6.5876 N.am      5 UNK        -0.4015 
     20 C          25.8736   -2.0480   -7.7556 C.2       4 UNK         0.4946 
     21 O          26.4358   -1.9806   -8.8492 O.2       4 UNK        -0.5353 
     22 CA         24.3325   -2.0779   -7.7173 C.3       4 UNK         0.0277 
     23 CB         23.8183   -3.4923   -8.0325 C.3       4 UNK        -0.1981 
     24 N          23.7562   -1.6332   -6.4455 N.am      4 UNK        -0.4209 
     25 C          23.7875   -0.3738   -5.9855 C.2       3 UNK         0.4942 
     26 O          24.2756    0.5717   -6.6001 O.2       3 UNK        -0.5208 
     27 CA         23.2479   -0.1446   -4.5617 C.3       3 UNK         0.0250 
     28 CB         21.7283    0.0832   -4.5882 C.3       3 UNK        -0.1990 
     29 N          23.5717   -1.2329   -3.6293 N.am      3 UNK        -0.4232 
     30 C          24.8147   -1.6657   -3.3762 C.2       2 UNK         0.4993 
     31 O          25.8175   -1.1936   -3.9161 O.2       2 UNK        -0.5286 
     32 CA         24.9485   -2.8765   -2.4397 C.3       2 UNK         0.0209 
     33 CB         24.5762   -4.1691   -3.1865 C.3       2 UNK        -0.1931 
     34 N          26.3119   -3.0143   -1.9240 N.am      2 UNK        -0.4546 
     35 C          26.8642   -2.1979   -1.0177 C.2       1 UNK         0.5154 
     36 O          26.2519   -1.2866   -0.4523 O.2       1 UNK        -0.5181 
     37 C          28.3322   -0.4560   -6.4216 C.2       5 UNK         0.5014 
     38 O          29.2689   -0.0424   -7.1054 O.2       5 UNK        -0.5248 
     39 N          27.5974    0.3142   -5.6083 N.am      6 UNK        -0.4434 
     40 CA         27.8431    1.7293   -5.3509 C.3       6 UNK         0.0363 
     41 CB         27.0354    2.1683   -4.1183 C.3       6 UNK        -0.1936 
     42 C          27.5427    2.6309   -6.5576 C.2       6 UNK         0.5081 
     43 O          28.4125    3.4040   -6.9615 O.2       6 UNK        -0.5248 
     44 N          26.3192    2.5452   -7.0977 N.am      7 UNK        -0.4718 
     45 CA         25.8447    3.4122   -8.1772 C.3       7 UNK         0.0273 
     46 CB         24.3115    3.3441   -8.2657 C.3       7 UNK        -0.1935 
     47 C          26.4812    3.0263   -9.5180 C.2       7 UNK         0.5018 
     48 O          26.4241    1.8555   -9.9006 O.2       7 UNK        -0.5186 
     49 N          27.0644    4.0207  -10.2022 N.am      8 UNK        -0.4240 
     50 CA         27.7305    3.9779  -11.5135 C.3       8 UNK         0.0235 
     51 CB         26.7454    3.5800  -12.6305 C.3       8 UNK        -0.2000 
     52 C          29.0067    3.1173  -11.5721 C.2       8 UNK         0.4941 
     53 O          30.0151    3.5804  -12.1061 O.2       8 UNK        -0.5273 
     54 N          28.9458    1.8910  -11.0408 N.am      9 UNK        -0.4262 
     55 CA         30.0411    0.9235  -11.0162 C.3       9 UNK         0.0264 
     56 CB         29.4897   -0.4663  -10.6584 C.3       9 UNK        -0.1955 
     57 C          31.1827    1.3176  -10.0666 C.2       9 UNK         0.5031 
     58 O          32.3380    1.0404  -10.3903 O.2       9 UNK        -0.5390 
     59 N          30.8487    1.9307   -8.9188 N.am      10 UNK        -0.4204 
     60 CA         31.7607    2.3597   -7.8468 C.3       10 UNK         0.0237 
     61 CB         32.5373    3.6195   -8.2835 C.3       10 UNK        -0.1985 
     62 C          32.6824    1.2218   -7.3572 C.2       10 UNK         0.4970 
     63 O          33.9012    1.3936   -7.2947 O.2       10 UNK        -0.4914 
     64 N          32.0674    0.0670   -7.0752 N.am      11 UNK        -0.4285 
     65 CA         32.6936   -1.2279   -6.7599 C.3       11 UNK         0.1007 
     66 C          33.3886   -1.9375   -7.9625 C.2       11 UNK         0.5703 
     67 N          33.3750   -1.4030   -9.1774 N.am      11 UNK        -0.7361 
     68 O          33.9234   -3.0315   -7.7992 O.2       11 UNK        -0.4986 
     69 C69        33.6107   -1.2041   -5.5001 C.3       12 UNK        -0.0947 
     70 S70        32.7649   -0.6623   -3.9748 S.3       12 UNK        -0.2240 
     71 C71        33.2419   -1.9787   -2.7972 C.3       12 UNK         0.0194 
     72 H72        30.3674    0.8361    0.2936 H         1 UNK         0.0906 
     73 H73        31.1776    0.8919   -1.2741 H         1 UNK         0.0906 
     74 H74        29.6590    1.7607   -1.0339 H         1 UNK         0.0906 
     75 H75        29.2855   -1.1113    0.6341 H         1 UNK         0.3140 
     76 H76        28.8050   -2.9558   -1.4971 H         1 UNK         0.1085 
     77 H77        27.7566   -3.1351    1.3797 H         1 UNK         0.0836 
     78 H78        27.8923   -4.4535    0.2504 H         1 UNK         0.0836 
     79 H79        31.4986   -5.6324    0.5230 H         1 UNK         0.0731 
     80 H80        29.8555   -5.9698    0.0369 H         1 UNK         0.0731 
     81 H81        32.3944   -3.2410   -0.5493 H         1 UNK         0.1312 
     82 H82        31.8498   -3.2739   -4.7962 H         1 UNK         0.1406 
     83 H83        29.5499   -5.9110   -2.3342 H         1 UNK         0.1631 
     84 H84        29.8070   -6.2251   -4.8976 H         1 UNK         0.0717 
     85 H85        30.4495   -4.9043   -5.8401 H         1 UNK         0.0717 
     86 H86        28.1450   -2.1805   -4.2685 H         1 UNK         0.0934 
     87 H87        29.6174   -2.4615   -5.1322 H         1 UNK         0.0934 
     88 H88        28.4686   -2.3987   -7.3123 H         1 UNK         0.0739 
     89 H89        26.0029   -2.1070   -5.7224 H         1 UNK         0.3093 
     90 H90        23.9783   -1.4018   -8.4987 H         1 UNK         0.0818 
     91 H91        22.7302   -3.5156   -8.0952 H         1 UNK         0.0819 
     92 H92        24.2030   -3.8420   -8.9917 H         1 UNK         0.0819 
     93 H93        24.1289   -4.2136   -7.2754 H         1 UNK         0.0819 
     94 H94        23.3325   -2.3422   -5.8653 H         1 UNK         0.3041 
     95 H95        23.7211    0.7618   -4.1782 H         1 UNK         0.0784 
     96 H96        21.4690    0.9000   -5.2635 H         1 UNK         0.0793 
     97 H97        21.1906   -0.8031   -4.9272 H         1 UNK         0.0793 
     98 H98        21.3494    0.3500   -3.6014 H         1 UNK         0.0793 
     99 H99        22.7930   -1.6752   -3.1615 H         1 UNK         0.3024 
    100 H100       24.2693   -2.7387   -1.5951 H         1 UNK         0.1171 
    101 H101       25.2166   -4.3342   -4.0543 H         1 UNK         0.0786 
    102 H102       24.6633   -5.0407   -2.5373 H         1 UNK         0.0786 
    103 H103       23.5459   -4.1391   -3.5429 H         1 UNK         0.0786 
    104 H104       26.8853   -3.7200   -2.3628 H         1 UNK         0.2977 
    105 H105       26.8826   -0.1337   -5.0382 H         1 UNK         0.3127 
    106 H106       28.9031    1.8403   -5.1113 H         1 UNK         0.0770 
    107 H107       25.9631    2.0393   -4.2697 H         1 UNK         0.0814 
    108 H108       27.2116    3.2198   -3.8888 H         1 UNK         0.0814 
    109 H109       27.3179    1.5908   -3.2374 H         1 UNK         0.0814 
    110 H110       25.6735    1.8254   -6.7792 H         1 UNK         0.2983 
    111 H111       26.1205    4.4397   -7.9293 H         1 UNK         0.0947 
    112 H112       23.9325    4.0491   -9.0066 H         1 UNK         0.0806 
    113 H113       23.8455    3.5912   -7.3117 H         1 UNK         0.0806 
    114 H114       23.9684    2.3510   -8.5586 H         1 UNK         0.0806 
    115 H115       27.0775    4.9310   -9.7625 H         1 UNK         0.3000 
    116 H116       28.0445    5.0042  -11.7120 H         1 UNK         0.0850 
    117 H117       27.2241    3.6366  -13.6091 H         1 UNK         0.0810 
    118 H118       25.8827    4.2457  -12.6535 H         1 UNK         0.0810 
    119 H119       26.3782    2.5604  -12.5096 H         1 UNK         0.0810 
    120 H120       28.0593    1.6122  -10.6216 H         1 UNK         0.3040 
    121 H121       30.4613    0.8695  -12.0229 H         1 UNK         0.0766 
    122 H122       28.9677   -0.4620   -9.7012 H         1 UNK         0.0812 
    123 H123       30.2916   -1.2030  -10.5908 H         1 UNK         0.0812 
    124 H124       28.7882   -0.8194  -11.4142 H         1 UNK         0.0812 
    125 H125       29.8646    2.0625   -8.7247 H         1 UNK         0.3205 
    126 H126       31.1333    2.6328   -6.9969 H         1 UNK         0.0754 
    127 H127       33.1531    4.0023   -7.4687 H         1 UNK         0.0769 
    128 H128       31.8579    4.4191   -8.5793 H         1 UNK         0.0769 
    129 H129       33.1993    3.4139   -9.1256 H         1 UNK         0.0769 
    130 H130       31.0514    0.0413   -7.1594 H         1 UNK         0.2981 
    131 H131       31.8459   -1.8733   -6.5337 H         1 UNK         0.0541 
    132 H132       32.9698   -0.4909   -9.3596 H         1 UNK         0.3459 
    133 H133       33.8230   -1.9020   -9.9288 H         1 UNK         0.3459 
    134 H134       34.4728   -0.5560   -5.6600 H         1 UNK         0.0612 
    135 H135       34.0248   -2.1980   -5.3251 H         1 UNK         0.0612 
    136 H136       33.3620   -1.5030   -1.8227 H         1 UNK         0.0624 
    137 H137       34.2200   -2.3867   -3.0535 H         1 UNK         0.0624 
@<TRIPOS>BOND
     1    1    2 1    
     2    1   72 1    
     3    1   73 1    
     4    1   74 1    
     5    2    3 2    
     6    2    4 am   BACKBONE|DICT|INTERRES
     7    4    5 1    
     8    4   75 1    
     9    5    6 1    
    10    5   35 1    
    11    5   76 1    
    12    6    7 1    
    13    6   77 1    
    14    6   78 1    
    15    7    8 1    
    16    8    9 1    
    17    8   79 1    
    18    8   80 1    
    19    9   10 ar   
    20    9   14 ar   
    21   10   11 ar   
    22   10   81 1    
    23   11   12 ar   
    24   11   71 1    
    25   12   13 ar   
    26   12   82 1    
    27   13   14 ar   
    28   13   15 1    
    29   14   83 1    
    30   15   16 1    
    31   15   84 1    
    32   15   85 1    
    33   16   17 1    
    34   17   18 1    
    35   17   86 1    
    36   17   87 1    
    37   18   19 1    
    38   18   37 1    
    39   18   88 1    
    40   19   20 am   BACKBONE|DICT|INTERRES
    41   19   89 1    
    42   20   21 2    
    43   20   22 1    
    44   22   23 1    
    45   22   24 1    
    46   22   90 1    
    47   23   91 1    
    48   23   92 1    
    49   23   93 1    
    50   24   25 am   BACKBONE|DICT|INTERRES
    51   24   94 1    
    52   25   26 2    
    53   25   27 1    
    54   27   28 1    
    55   27   29 1    
    56   27   95 1    
    57   28   96 1    
    58   28   97 1    
    59   28   98 1    
    60   29   30 am   BACKBONE|DICT|INTERRES
    61   29   99 1    
    62   30   31 2    
    63   30   32 1    
    64   32   33 1    
    65   32   34 1    
    66   32  100 1    
    67   33  101 1    
    68   33  102 1    
    69   33  103 1    
    70   34   35 am   BACKBONE|DICT|INTERRES
    71   34  104 1    
    72   35   36 2    
    73   37   38 2    
    74   37   39 am   BACKBONE|DICT|INTERRES
    75   39   40 1    
    76   39  105 1    
    77   40   41 1    
    78   40   42 1    
    79   40  106 1    
    80   41  107 1    
    81   41  108 1    
    82   41  109 1    
    83   42   43 2    
    84   42   44 am   BACKBONE|DICT|INTERRES
    85   44   45 1    
    86   44  110 1    
    87   45   46 1    
    88   45   47 1    
    89   45  111 1    
    90   46  112 1    
    91   46  113 1    
    92   46  114 1    
    93   47   48 2    
    94   47   49 am   BACKBONE|DICT|INTERRES
    95   49   50 1    
    96   49  115 1    
    97   50   51 1    
    98   50   52 1    
    99   50  116 1    
   100   51  117 1    
   101   51  118 1    
   102   51  119 1    
   103   52   53 2    
   104   52   54 am   BACKBONE|DICT|INTERRES
   105   54   55 1    
   106   54  120 1    
   107   55   56 1    
   108   55   57 1    
   109   55  121 1    
   110   56  122 1    
   111   56  123 1    
   112   56  124 1    
   113   57   58 2    
   114   57   59 am   BACKBONE|DICT|INTERRES
   115   59   60 1    
   116   59  125 1    
   117   60   61 1    
   118   60   62 1    
   119   60  126 1    
   120   61  127 1    
   121   61  128 1    
   122   61  129 1    
   123   62   63 2    
   124   62   64 am   BACKBONE|DICT|INTERRES
   125   64   65 1    
   126   64  130 1    
   127   65   66 1    
   128   65   69 1    
   129   65  131 1    
   130   66   67 am   BACKBONE|DICT|INTERRES
   131   66   68 2    
   132   67  132 1    
   133   67  133 1    
   134   69   70 1    
   135   69  134 1    
   136   69  135 1    
   137   70   71 1    
   138   71  136 1    
   139   71  137 1    
@<TRIPOS>SUBSTRUCTURE
     1 UNK         1 GROUP             0       ****    0 ROOT    
