@<TRIPOS>MOLECULE
3R137
137   139    1
SMALL
USER_CHARGES


@<TRIPOS>ATOM
      1 CA         30.0464   -1.3523    2.4201 C.3       0 UNK        -0.2020 
      2 C          29.4116   -1.7445    1.0943 C.2       0 UNK         0.4855 
      3 O          28.9335   -0.8762    0.3640 O.2       0 UNK        -0.5197 
      4 N          29.4105   -3.0441    0.7747 N.am      1 UNK        -0.4892 
      5 CA         28.8163   -3.6081   -0.4413 C.3       1 UNK         0.0835 
      6 C6         29.2910   -5.0622   -0.7027 C.3       12 UNK        -0.0855 
      7 S7         31.1108   -5.2125   -0.7740 S.3       12 UNK        -0.2931 
      8 C8         31.4158   -5.4255   -2.5603 C.3       12 UNK         0.0378 
      9 C9         30.8958   -4.2640   -3.4001 C.ar      12 UNK        -0.0802 
     10 C10        31.2346   -2.9450   -3.0807 C.ar      12 UNK        -0.0944 
     11 C11        30.7374   -1.8764   -3.8313 C.ar      12 UNK        -0.0787 
     12 C12        29.9203   -2.1421   -4.9369 C.ar      12 UNK        -0.0862 
     13 C13        29.6018   -3.4584   -5.2897 C.ar      12 UNK        -0.0733 
     14 C14        30.0830   -4.5131   -4.5100 C.ar      12 UNK        -0.0832 
     15 C15        28.7894   -3.7514   -6.5444 C.3       12 UNK         0.0240 
     16 S16        27.0313   -4.0940   -6.2211 S.3       12 UNK        -0.2522 
     17 C17        26.3945   -2.4791   -5.6689 C.3       12 UNK        -0.0967 
     18 CA         25.9760   -1.5240   -6.8239 C.3       5 UNK         0.0660 
     19 N          24.7810   -0.7553   -6.4539 N.am      5 UNK        -0.4015 
     20 C          24.1928    0.2429   -7.1282 C.2       4 UNK         0.4946 
     21 O          24.5834    0.6525   -8.2212 O.2       4 UNK        -0.5353 
     22 CA         22.9962    0.9504   -6.4577 C.3       4 UNK         0.0277 
     23 CB         21.6600    0.4240   -7.0176 C.3       4 UNK        -0.1981 
     24 N          23.0103    0.9414   -4.9823 N.am      4 UNK        -0.4209 
     25 C          22.8881   -0.1073   -4.1560 C.2       3 UNK         0.4942 
     26 O          22.7001   -1.2642   -4.5395 O.2       3 UNK        -0.5208 
     27 CA         23.0407    0.1801   -2.6528 C.3       3 UNK         0.0250 
     28 CB         21.6794    0.5334   -2.0321 C.3       3 UNK        -0.1990 
     29 N          23.6097   -0.9692   -1.9429 N.am      3 UNK        -0.4232 
     30 C          24.8496   -1.4439   -2.1249 C.2       2 UNK         0.4993 
     31 O          25.6971   -0.9099   -2.8472 O.2       2 UNK        -0.5286 
     32 CA         25.1813   -2.7537   -1.4014 C.3       2 UNK         0.0209 
     33 CB         24.5588   -3.9626   -2.1253 C.3       2 UNK        -0.1931 
     34 N          26.6309   -2.9207   -1.3349 N.am      2 UNK        -0.4546 
     35 C          27.2794   -3.5496   -0.3497 C.2       1 UNK         0.5154 
     36 O          26.7133   -4.0838    0.6082 O.2       1 UNK        -0.5181 
     37 C          27.1528   -0.6188   -7.2414 C.2       5 UNK         0.5014 
     38 O          27.7959   -0.8694   -8.2625 O.2       5 UNK        -0.5248 
     39 N          27.3876    0.4427   -6.4568 N.am      6 UNK        -0.4434 
     40 CA         28.4565    1.4209   -6.6582 C.3       6 UNK         0.0363 
     41 CB         28.4454    2.4338   -5.5034 C.3       6 UNK        -0.1936 
     42 C          28.4144    2.1466   -8.0109 C.2       6 UNK         0.5081 
     43 O          29.4767    2.4431   -8.5557 O.2       6 UNK        -0.5248 
     44 N          27.2106    2.3836   -8.5508 N.am      7 UNK        -0.4718 
     45 CA         27.0170    3.0119   -9.8606 C.3       7 UNK         0.0273 
     46 CB         25.5532    3.4576  -10.0069 C.3       7 UNK        -0.1935 
     47 C          27.4274    2.1001  -11.0301 C.2       7 UNK         0.5018 
     48 O          27.7967    2.6134  -12.0869 O.2       7 UNK        -0.5186 
     49 N          27.3643    0.7776  -10.8230 N.am      8 UNK        -0.4240 
     50 CA         27.8133   -0.2273  -11.7834 C.3       8 UNK         0.0235 
     51 CB         26.9765   -1.5081  -11.6214 C.3       8 UNK        -0.2000 
     52 C          29.3104   -0.5248  -11.6169 C.2       8 UNK         0.4941 
     53 O          30.0326   -0.5537  -12.6140 O.2       8 UNK        -0.5273 
     54 N          29.7463   -0.7596  -10.3707 N.am      9 UNK        -0.4262 
     55 CA         31.1119   -1.1831  -10.0512 C.3       9 UNK         0.0264 
     56 CB         31.1336   -1.8572   -8.6705 C.3       9 UNK        -0.1955 
     57 C          32.1619   -0.0640  -10.1047 C.2       9 UNK         0.5031 
     58 O          33.3184   -0.3636  -10.4057 O.2       9 UNK        -0.5390 
     59 N          31.7703    1.1763   -9.7685 N.am      10 UNK        -0.4204 
     60 CA         32.6499    2.3338   -9.5408 C.3       10 UNK         0.0237 
     61 CB         33.3111    2.8014  -10.8556 C.3       10 UNK        -0.1985 
     62 C          33.6616    2.0819   -8.4006 C.2       10 UNK         0.4970 
     63 O          34.8326    2.4496   -8.5151 O.2       10 UNK        -0.4914 
     64 N          33.1842    1.4269   -7.3341 N.am      11 UNK        -0.4285 
     65 CA         33.9405    1.0629   -6.1281 C.3       11 UNK         0.1007 
     66 C          34.4472    2.2851   -5.3084 C.2       11 UNK         0.5703 
     67 N          35.4815    2.0976   -4.4992 N.am      11 UNK        -0.7361 
     68 O          33.9035    3.3867   -5.3758 O.2       11 UNK        -0.4986 
     69 C69        33.1425    0.0527   -5.2554 C.3       12 UNK        -0.0947 
     70 S70        31.4991    0.6705   -4.7600 S.3       12 UNK        -0.2240 
     71 C71        31.0495   -0.4472   -3.3946 C.3       12 UNK         0.0194 
     72 H72        30.4395   -2.2160    2.9560 H         1 UNK         0.0906 
     73 H73        30.8674   -0.6560    2.2511 H         1 UNK         0.0906 
     74 H74        29.3106   -0.8634    3.0580 H         1 UNK         0.0906 
     75 H75        29.8112   -3.7179    1.4116 H         1 UNK         0.3140 
     76 H76        29.1323   -2.9901   -1.2837 H         1 UNK         0.1085 
     77 H77        28.8605   -5.4423   -1.6314 H         1 UNK         0.0836 
     78 H78        28.9358   -5.7285    0.0861 H         1 UNK         0.0836 
     79 H79        30.9689   -6.3684   -2.8797 H         1 UNK         0.0731 
     80 H80        32.4897   -5.5230   -2.7244 H         1 UNK         0.0731 
     81 H81        31.8628   -2.7515   -2.2217 H         1 UNK         0.1312 
     82 H82        29.5399   -1.3226   -5.5286 H         1 UNK         0.1406 
     83 H83        29.8321   -5.5304   -4.7793 H         1 UNK         0.1631 
     84 H84        29.2191   -4.6143   -7.0553 H         1 UNK         0.0717 
     85 H85        28.8666   -2.9278   -7.2478 H         1 UNK         0.0717 
     86 H86        25.5220   -2.7187   -5.0595 H         1 UNK         0.0934 
     87 H87        27.0931   -2.0146   -4.9709 H         1 UNK         0.0934 
     88 H88        25.6929   -2.1155   -7.6967 H         1 UNK         0.0739 
     89 H89        24.3129   -1.0448   -5.6010 H         1 UNK         0.3093 
     90 H90        23.0729    2.0015   -6.7414 H         1 UNK         0.0818 
     91 H91        20.8126    0.9641   -6.5957 H         1 UNK         0.0819 
     92 H92        21.6177    0.5501   -8.1004 H         1 UNK         0.0819 
     93 H93        21.5178   -0.6373   -6.8125 H         1 UNK         0.0819 
     94 H94        23.1796    1.8447   -4.5601 H         1 UNK         0.3041 
     95 H95        23.7195    1.0259   -2.5228 H         1 UNK         0.0784 
     96 H96        21.2411    1.4062   -2.5180 H         1 UNK         0.0793 
     97 H97        20.9659   -0.2861   -2.1309 H         1 UNK         0.0793 
     98 H98        21.7750    0.7698   -0.9720 H         1 UNK         0.0793 
     99 H99        22.9706   -1.4942   -1.3639 H         1 UNK         0.3024 
    100 H100       24.7751   -2.6852   -0.3892 H         1 UNK         0.1171 
    101 H101       24.7376   -4.8872   -1.5761 H         1 UNK         0.0786 
    102 H102       23.4783   -3.8523   -2.2267 H         1 UNK         0.0786 
    103 H103       24.9695   -4.0870   -3.1277 H         1 UNK         0.0786 
    104 H104       27.1428   -2.4240   -2.0539 H         1 UNK         0.2977 
    105 H105       26.8002    0.5746   -5.6457 H         1 UNK         0.3127 
    106 H106       29.3970    0.8713   -6.6334 H         1 UNK         0.0770 
    107 H107       27.5149    3.0019   -5.4717 H         1 UNK         0.0814 
    108 H108       29.2626    3.1493   -5.6064 H         1 UNK         0.0814 
    109 H109       28.5724    1.9397   -4.5399 H         1 UNK         0.0814 
    110 H110       26.3816    2.0407   -8.0814 H         1 UNK         0.2983 
    111 H111       27.6489    3.9021   -9.9052 H         1 UNK         0.0947 
    112 H112       25.4019    3.9901  -10.9469 H         1 UNK         0.0806 
    113 H113       25.2594    4.1318   -9.2024 H         1 UNK         0.0806 
    114 H114       24.8688    2.6088  -10.0023 H         1 UNK         0.0806 
    115 H115       27.0825    0.4440   -9.9093 H         1 UNK         0.3000 
    116 H116       27.6558    0.1458  -12.7980 H         1 UNK         0.0850 
    117 H117       27.2844   -2.2670  -12.3419 H         1 UNK         0.0810 
    118 H118       25.9178   -1.3115  -11.7909 H         1 UNK         0.0810 
    119 H119       27.0792   -1.9433  -10.6268 H         1 UNK         0.0810 
    120 H120       29.0729   -0.7483   -9.6065 H         1 UNK         0.3040 
    121 H121       31.4137   -1.9330  -10.7861 H         1 UNK         0.0766 
    122 H122       30.6909   -1.2252   -7.8999 H         1 UNK         0.0812 
    123 H123       32.1527   -2.0888   -8.3566 H         1 UNK         0.0812 
    124 H124       30.5915   -2.8009   -8.6982 H         1 UNK         0.0812 
    125 H125       30.7964    1.3353   -9.5239 H         1 UNK         0.3205 
    126 H126       32.0064    3.1443   -9.1960 H         1 UNK         0.0754 
    127 H127       33.8530    3.7363  -10.7080 H         1 UNK         0.0769 
    128 H128       32.5661    2.9783  -11.6314 H         1 UNK         0.0769 
    129 H129       34.0247    2.0701  -11.2361 H         1 UNK         0.0769 
    130 H130       32.2014    1.2042   -7.3075 H         1 UNK         0.2981 
    131 H131       34.8335    0.5442   -6.4823 H         1 UNK         0.0541 
    132 H132       35.9326    1.1990   -4.4267 H         1 UNK         0.3459 
    133 H133       35.8199    2.8730   -3.9511 H         1 UNK         0.3459 
    134 H134       33.7086   -0.2193   -4.3629 H         1 UNK         0.0612 
    135 H135       32.9962   -0.8762   -5.8090 H         1 UNK         0.0612 
    136 H136       31.8509   -0.4313   -2.6543 H         1 UNK         0.0624 
    137 H137       30.1661   -0.0436   -2.8981 H         1 UNK         0.0624 
@<TRIPOS>BOND
     1    1    2 1    
     2    1   72 1    
     3    1   73 1    
     4    1   74 1    
     5    2    3 2    
     6    2    4 am   BACKBONE|DICT|INTERRES
     7    4    5 1    
     8    4   75 1    
     9    5    6 1    
    10    5   35 1    
    11    5   76 1    
    12    6    7 1    
    13    6   77 1    
    14    6   78 1    
    15    7    8 1    
    16    8    9 1    
    17    8   79 1    
    18    8   80 1    
    19    9   10 ar   
    20    9   14 ar   
    21   10   11 ar   
    22   10   81 1    
    23   11   12 ar   
    24   11   71 1    
    25   12   13 ar   
    26   12   82 1    
    27   13   14 ar   
    28   13   15 1    
    29   14   83 1    
    30   15   16 1    
    31   15   84 1    
    32   15   85 1    
    33   16   17 1    
    34   17   18 1    
    35   17   86 1    
    36   17   87 1    
    37   18   19 1    
    38   18   37 1    
    39   18   88 1    
    40   19   20 am   BACKBONE|DICT|INTERRES
    41   19   89 1    
    42   20   21 2    
    43   20   22 1    
    44   22   23 1    
    45   22   24 1    
    46   22   90 1    
    47   23   91 1    
    48   23   92 1    
    49   23   93 1    
    50   24   25 am   BACKBONE|DICT|INTERRES
    51   24   94 1    
    52   25   26 2    
    53   25   27 1    
    54   27   28 1    
    55   27   29 1    
    56   27   95 1    
    57   28   96 1    
    58   28   97 1    
    59   28   98 1    
    60   29   30 am   BACKBONE|DICT|INTERRES
    61   29   99 1    
    62   30   31 2    
    63   30   32 1    
    64   32   33 1    
    65   32   34 1    
    66   32  100 1    
    67   33  101 1    
    68   33  102 1    
    69   33  103 1    
    70   34   35 am   BACKBONE|DICT|INTERRES
    71   34  104 1    
    72   35   36 2    
    73   37   38 2    
    74   37   39 am   BACKBONE|DICT|INTERRES
    75   39   40 1    
    76   39  105 1    
    77   40   41 1    
    78   40   42 1    
    79   40  106 1    
    80   41  107 1    
    81   41  108 1    
    82   41  109 1    
    83   42   43 2    
    84   42   44 am   BACKBONE|DICT|INTERRES
    85   44   45 1    
    86   44  110 1    
    87   45   46 1    
    88   45   47 1    
    89   45  111 1    
    90   46  112 1    
    91   46  113 1    
    92   46  114 1    
    93   47   48 2    
    94   47   49 am   BACKBONE|DICT|INTERRES
    95   49   50 1    
    96   49  115 1    
    97   50   51 1    
    98   50   52 1    
    99   50  116 1    
   100   51  117 1    
   101   51  118 1    
   102   51  119 1    
   103   52   53 2    
   104   52   54 am   BACKBONE|DICT|INTERRES
   105   54   55 1    
   106   54  120 1    
   107   55   56 1    
   108   55   57 1    
   109   55  121 1    
   110   56  122 1    
   111   56  123 1    
   112   56  124 1    
   113   57   58 2    
   114   57   59 am   BACKBONE|DICT|INTERRES
   115   59   60 1    
   116   59  125 1    
   117   60   61 1    
   118   60   62 1    
   119   60  126 1    
   120   61  127 1    
   121   61  128 1    
   122   61  129 1    
   123   62   63 2    
   124   62   64 am   BACKBONE|DICT|INTERRES
   125   64   65 1    
   126   64  130 1    
   127   65   66 1    
   128   65   69 1    
   129   65  131 1    
   130   66   67 am   BACKBONE|DICT|INTERRES
   131   66   68 2    
   132   67  132 1    
   133   67  133 1    
   134   69   70 1    
   135   69  134 1    
   136   69  135 1    
   137   70   71 1    
   138   71  136 1    
   139   71  137 1    
@<TRIPOS>SUBSTRUCTURE
     1 UNK         1 GROUP             0       ****    0 ROOT    
