@<TRIPOS>MOLECULE
3R137
137   139    1
SMALL
USER_CHARGES


@<TRIPOS>ATOM
      1 CA         25.5847   -2.2962    0.5266 C.3       0 UNK        -0.2020 
      2 C          25.7198   -0.9972   -0.2519 C.2       0 UNK         0.4855 
      3 O          24.7246   -0.3042   -0.4670 O.2       0 UNK        -0.5197 
      4 N          26.9398   -0.6610   -0.6899 N.am      1 UNK        -0.4892 
      5 CA         27.2433    0.5102   -1.5184 C.3       1 UNK         0.0835 
      6 C6         28.7686    0.7728   -1.6544 C.3       12 UNK        -0.0855 
      7 S7         29.7815   -0.7189   -1.9563 S.3       12 UNK        -0.2931 
      8 C8         30.4343   -0.3958   -3.6214 C.3       12 UNK         0.0378 
      9 C9         30.9186   -1.6881   -4.2559 C.ar      12 UNK        -0.0802 
     10 C10        32.2759   -2.0265   -4.2878 C.ar      12 UNK        -0.0944 
     11 C11        32.6887   -3.2417   -4.8497 C.ar      12 UNK        -0.0787 
     12 C12        31.7322   -4.1008   -5.4055 C.ar      12 UNK        -0.0862 
     13 C13        30.3767   -3.7643   -5.3880 C.ar      12 UNK        -0.0733 
     14 C14        29.9789   -2.5668   -4.7930 C.ar      12 UNK        -0.0832 
     15 C15        29.3339   -4.7199   -5.9469 C.3       12 UNK         0.0240 
     16 S16        28.8232   -4.3404   -7.6579 S.3       12 UNK        -0.2522 
     17 C17        28.1220   -2.6525   -7.5974 C.3       12 UNK        -0.0967 
     18 CA         26.6248   -2.5776   -7.1889 C.3       5 UNK         0.0660 
     19 N          26.3874   -2.8118   -5.7634 N.am      5 UNK        -0.4015 
     20 C          25.8690   -3.9326   -5.2446 C.2       4 UNK         0.4946 
     21 O          25.6153   -4.9432   -5.9012 O.2       4 UNK        -0.5353 
     22 CA         25.5645   -3.9270   -3.7396 C.3       4 UNK         0.0277 
     23 CB         26.8441   -3.8797   -2.8852 C.3       4 UNK        -0.1981 
     24 N          24.6876   -2.8097   -3.3959 N.am      4 UNK        -0.4209 
     25 C          23.3494   -2.8497   -3.4908 C.2       3 UNK         0.4942 
     26 O          22.7187   -3.8535   -3.8246 O.2       3 UNK        -0.5208 
     27 CA         22.5675   -1.5692   -3.1494 C.3       3 UNK         0.0250 
     28 CB         21.9204   -1.6836   -1.7592 C.3       3 UNK        -0.1990 
     29 N          23.4015   -0.3669   -3.2074 N.am      3 UNK        -0.4232 
     30 C          23.7249    0.2576   -4.3504 C.2       2 UNK         0.4993 
     31 O          23.2843   -0.0720   -5.4514 O.2       2 UNK        -0.5286 
     32 CA         24.6971    1.4482   -4.2601 C.3       2 UNK         0.0209 
     33 CB         23.9003    2.7625   -4.2011 C.3       2 UNK        -0.1931 
     34 N          25.6124    1.3936   -3.1145 N.am      2 UNK        -0.4546 
     35 C          26.5065    0.4234   -2.8723 C.2       1 UNK         0.5154 
     36 O          26.6965   -0.5395   -3.6207 O.2       1 UNK        -0.5181 
     37 C          26.0763   -1.1747   -7.4731 C.2       5 UNK         0.5014 
     38 O          26.4202   -0.2438   -6.7431 O.2       5 UNK        -0.5248 
     39 N          25.2804   -1.0335   -8.5426 N.am      6 UNK        -0.4434 
     40 CA         24.5747    0.1991   -8.9254 C.3       6 UNK         0.0363 
     41 CB         23.7029   -0.0836  -10.1599 C.3       6 UNK        -0.1936 
     42 C          25.4717    1.4275   -9.1747 C.2       6 UNK         0.5081 
     43 O          24.9885    2.5551   -9.0706 O.2       6 UNK        -0.5248 
     44 N          26.7561    1.1968   -9.4809 N.am      7 UNK        -0.4718 
     45 CA         27.7877    2.2305   -9.5994 C.3       7 UNK         0.0273 
     46 CB         29.0470    1.6106  -10.2283 C.3       7 UNK        -0.1935 
     47 C          28.1409    2.9082   -8.2607 C.2       7 UNK         0.5018 
     48 O          28.6459    4.0307   -8.2828 O.2       7 UNK        -0.5186 
     49 N          27.8935    2.2160   -7.1346 N.am      8 UNK        -0.4240 
     50 CA         28.1386    2.6297   -5.7441 C.3       8 UNK         0.0235 
     51 CB         27.2842    3.8638   -5.3901 C.3       8 UNK        -0.2000 
     52 C          29.6212    2.8459   -5.3767 C.2       8 UNK         0.4941 
     53 O          29.9041    3.3520   -4.2901 O.2       8 UNK        -0.5273 
     54 N          30.5354    2.4515   -6.2665 N.am      9 UNK        -0.4262 
     55 CA         31.9807    2.6361   -6.2207 C.3       9 UNK         0.0264 
     56 CB         32.3372    4.1395   -6.2786 C.3       9 UNK        -0.1955 
     57 C          32.5645    1.8711   -7.4188 C.2       9 UNK         0.5031 
     58 O          31.8293    1.1448   -8.0957 O.2       9 UNK        -0.5390 
     59 N          33.8720    2.0361   -7.6608 N.am      10 UNK        -0.4204 
     60 CA         34.6715    1.5134   -8.7824 C.3       10 UNK         0.0237 
     61 CB         34.1272    2.0067  -10.1387 C.3       10 UNK        -0.1985 
     62 C          34.8822   -0.0125   -8.7981 C.2       10 UNK         0.4970 
     63 O          35.9328   -0.4537   -9.2652 O.2       10 UNK        -0.4914 
     64 N          33.9160   -0.7825   -8.2821 N.am      11 UNK        -0.4285 
     65 CA         33.9434   -2.2498   -8.1704 C.3       11 UNK         0.1007 
     66 C          33.8217   -2.9970   -9.5363 C.2       11 UNK         0.5703 
     67 N          33.3235   -2.3576  -10.5889 N.am      11 UNK        -0.7361 
     68 O          34.1581   -4.1731   -9.6502 O.2       11 UNK        -0.4986 
     69 C69        35.1281   -2.7313   -7.2798 C.3       12 UNK        -0.0947 
     70 S70        34.7974   -4.2793   -6.3790 S.3       12 UNK        -0.2240 
     71 C71        34.1550   -3.6584   -4.7891 C.3       12 UNK         0.0194 
     72 H72        26.5458   -2.7918    0.6624 H         1 UNK         0.0906 
     73 H73        24.9202   -2.9805   -0.0003 H         1 UNK         0.0906 
     74 H74        25.1614   -2.1003    1.5114 H         1 UNK         0.0906 
     75 H75        27.7265   -1.2741   -0.5245 H         1 UNK         0.3140 
     76 H76        26.8334    1.3708   -0.9846 H         1 UNK         0.1085 
     77 H77        28.9692    1.5292   -2.4154 H         1 UNK         0.0836 
     78 H78        29.1316    1.2088   -0.7224 H         1 UNK         0.0836 
     79 H79        31.2361    0.3423   -3.5683 H         1 UNK         0.0731 
     80 H80        29.6490    0.0350   -4.2443 H         1 UNK         0.0731 
     81 H81        33.0043   -1.3592   -3.8478 H         1 UNK         0.1312 
     82 H82        32.0422   -5.0445   -5.8332 H         1 UNK         0.1406 
     83 H83        28.9302   -2.3119   -4.7387 H         1 UNK         0.1631 
     84 H84        28.4666   -4.7404   -5.2939 H         1 UNK         0.0717 
     85 H85        29.7259   -5.7379   -5.9322 H         1 UNK         0.0717 
     86 H86        28.7385   -1.9919   -6.9913 H         1 UNK         0.0934 
     87 H87        28.2365   -2.2680   -8.6130 H         1 UNK         0.0934 
     88 H88        26.0570   -3.2945   -7.7859 H         1 UNK         0.0739 
     89 H89        26.5030   -1.9913   -5.1736 H         1 UNK         0.3093 
     90 H90        25.0559   -4.8644   -3.5026 H         1 UNK         0.0818 
     91 H91        26.6083   -3.9507   -1.8240 H         1 UNK         0.0819 
     92 H92        27.5016   -4.7172   -3.1196 H         1 UNK         0.0819 
     93 H93        27.4142   -2.9639   -3.0348 H         1 UNK         0.0819 
     94 H94        25.1390   -1.9284   -3.1828 H         1 UNK         0.3041 
     95 H95        21.7635   -1.4723   -3.8825 H         1 UNK         0.0784 
     96 H96        21.2168   -2.5166   -1.7271 H         1 UNK         0.0793 
     97 H97        22.6599   -1.8574   -0.9778 H         1 UNK         0.0793 
     98 H98        21.3650   -0.7814   -1.5026 H         1 UNK         0.0793 
     99 H99        23.8082   -0.0515   -2.3320 H         1 UNK         0.3024 
    100 H100       25.2991    1.4457   -5.1700 H         1 UNK         0.1171 
    101 H101       24.5533    3.6323   -4.1404 H         1 UNK         0.0786 
    102 H102       23.2843    2.8824   -5.0936 H         1 UNK         0.0786 
    103 H103       23.2325    2.7899   -3.3389 H         1 UNK         0.0786 
    104 H104       25.4956    2.1216   -2.4243 H         1 UNK         0.2977 
    105 H105       25.0755   -1.8501   -9.1011 H         1 UNK         0.3127 
    106 H106       23.9141    0.4587   -8.0954 H         1 UNK         0.0770 
    107 H107       24.3044   -0.3864  -11.0179 H         1 UNK         0.0814 
    108 H108       23.1413    0.8046  -10.4535 H         1 UNK         0.0814 
    109 H109       22.9752   -0.8708   -9.9620 H         1 UNK         0.0814 
    110 H110       27.0580    0.2375   -9.5635 H         1 UNK         0.2983 
    111 H111       27.4140    3.0087  -10.2687 H         1 UNK         0.0947 
    112 H112       29.4498    0.8022   -9.6164 H         1 UNK         0.0806 
    113 H113       29.8371    2.3551  -10.3384 H         1 UNK         0.0806 
    114 H114       28.8406    1.2109  -11.2212 H         1 UNK         0.0806 
    115 H115       27.4483    1.3051   -7.2250 H         1 UNK         0.3000 
    116 H116       27.7969    1.7956   -5.1319 H         1 UNK         0.0850 
    117 H117       26.2609    3.7541   -5.7466 H         1 UNK         0.0810 
    118 H118       27.6905    4.7741   -5.8323 H         1 UNK         0.0810 
    119 H119       27.2446    4.0158   -4.3110 H         1 UNK         0.0810 
    120 H120       30.2297    1.9867   -7.1140 H         1 UNK         0.3040 
    121 H121       32.3658    2.1918   -5.3011 H         1 UNK         0.0766 
    122 H122       33.4133    4.3033   -6.2191 H         1 UNK         0.0812 
    123 H123       31.8962    4.6920   -5.4492 H         1 UNK         0.0812 
    124 H124       31.9849    4.5974   -7.2040 H         1 UNK         0.0812 
    125 H125       34.3906    2.6128   -7.0124 H         1 UNK         0.3205 
    126 H126       35.6631    1.9512   -8.6556 H         1 UNK         0.0754 
    127 H127       34.7879    1.7093  -10.9543 H         1 UNK         0.0769 
    128 H128       34.0523    3.0938  -10.1637 H         1 UNK         0.0769 
    129 H129       33.1404    1.5980  -10.3585 H         1 UNK         0.0769 
    130 H130       33.0526   -0.3224   -8.0090 H         1 UNK         0.2981 
    131 H131       33.0184   -2.4904   -7.6463 H         1 UNK         0.0541 
    132 H132       33.2397   -2.8443  -11.4672 H         1 UNK         0.3459 
    133 H133       33.0308   -1.3970  -10.5115 H         1 UNK         0.3459 
    134 H134       36.0304   -2.8657   -7.8788 H         1 UNK         0.0612 
    135 H135       35.3821   -1.9692   -6.5416 H         1 UNK         0.0612 
    136 H136       34.7841   -2.8397   -4.4365 H         1 UNK         0.0624 
    137 H137       34.2499   -4.4542   -4.0495 H         1 UNK         0.0624 
@<TRIPOS>BOND
     1    1    2 1    
     2    1   72 1    
     3    1   73 1    
     4    1   74 1    
     5    2    3 2    
     6    2    4 am   BACKBONE|DICT|INTERRES
     7    4    5 1    
     8    4   75 1    
     9    5    6 1    
    10    5   35 1    
    11    5   76 1    
    12    6    7 1    
    13    6   77 1    
    14    6   78 1    
    15    7    8 1    
    16    8    9 1    
    17    8   79 1    
    18    8   80 1    
    19    9   10 ar   
    20    9   14 ar   
    21   10   11 ar   
    22   10   81 1    
    23   11   12 ar   
    24   11   71 1    
    25   12   13 ar   
    26   12   82 1    
    27   13   14 ar   
    28   13   15 1    
    29   14   83 1    
    30   15   16 1    
    31   15   84 1    
    32   15   85 1    
    33   16   17 1    
    34   17   18 1    
    35   17   86 1    
    36   17   87 1    
    37   18   19 1    
    38   18   37 1    
    39   18   88 1    
    40   19   20 am   BACKBONE|DICT|INTERRES
    41   19   89 1    
    42   20   21 2    
    43   20   22 1    
    44   22   23 1    
    45   22   24 1    
    46   22   90 1    
    47   23   91 1    
    48   23   92 1    
    49   23   93 1    
    50   24   25 am   BACKBONE|DICT|INTERRES
    51   24   94 1    
    52   25   26 2    
    53   25   27 1    
    54   27   28 1    
    55   27   29 1    
    56   27   95 1    
    57   28   96 1    
    58   28   97 1    
    59   28   98 1    
    60   29   30 am   BACKBONE|DICT|INTERRES
    61   29   99 1    
    62   30   31 2    
    63   30   32 1    
    64   32   33 1    
    65   32   34 1    
    66   32  100 1    
    67   33  101 1    
    68   33  102 1    
    69   33  103 1    
    70   34   35 am   BACKBONE|DICT|INTERRES
    71   34  104 1    
    72   35   36 2    
    73   37   38 2    
    74   37   39 am   BACKBONE|DICT|INTERRES
    75   39   40 1    
    76   39  105 1    
    77   40   41 1    
    78   40   42 1    
    79   40  106 1    
    80   41  107 1    
    81   41  108 1    
    82   41  109 1    
    83   42   43 2    
    84   42   44 am   BACKBONE|DICT|INTERRES
    85   44   45 1    
    86   44  110 1    
    87   45   46 1    
    88   45   47 1    
    89   45  111 1    
    90   46  112 1    
    91   46  113 1    
    92   46  114 1    
    93   47   48 2    
    94   47   49 am   BACKBONE|DICT|INTERRES
    95   49   50 1    
    96   49  115 1    
    97   50   51 1    
    98   50   52 1    
    99   50  116 1    
   100   51  117 1    
   101   51  118 1    
   102   51  119 1    
   103   52   53 2    
   104   52   54 am   BACKBONE|DICT|INTERRES
   105   54   55 1    
   106   54  120 1    
   107   55   56 1    
   108   55   57 1    
   109   55  121 1    
   110   56  122 1    
   111   56  123 1    
   112   56  124 1    
   113   57   58 2    
   114   57   59 am   BACKBONE|DICT|INTERRES
   115   59   60 1    
   116   59  125 1    
   117   60   61 1    
   118   60   62 1    
   119   60  126 1    
   120   61  127 1    
   121   61  128 1    
   122   61  129 1    
   123   62   63 2    
   124   62   64 am   BACKBONE|DICT|INTERRES
   125   64   65 1    
   126   64  130 1    
   127   65   66 1    
   128   65   69 1    
   129   65  131 1    
   130   66   67 am   BACKBONE|DICT|INTERRES
   131   66   68 2    
   132   67  132 1    
   133   67  133 1    
   134   69   70 1    
   135   69  134 1    
   136   69  135 1    
   137   70   71 1    
   138   71  136 1    
   139   71  137 1    
@<TRIPOS>SUBSTRUCTURE
     1 UNK         1 GROUP             0       ****    0 ROOT    
