@<TRIPOS>MOLECULE
3R137
137   139    1
SMALL
USER_CHARGES


@<TRIPOS>ATOM
      1 CA         31.0281    1.2558   -0.7352 C.3       0 UNK        -0.2020 
      2 C          30.5992   -0.1226   -1.2146 C.2       0 UNK         0.4855 
      3 O          31.2665   -0.7056   -2.0654 O.2       0 UNK        -0.5197 
      4 N          29.4878   -0.6365   -0.6804 N.am      1 UNK        -0.4892 
      5 CA         28.8469   -1.8949   -1.0695 C.3       1 UNK         0.0835 
      6 C6         29.1507   -3.0519   -0.0792 C.3       12 UNK        -0.0855 
      7 S7         30.9256   -3.4635    0.0495 S.3       12 UNK        -0.2931 
      8 C8         31.0447   -5.0083   -0.9057 C.3       12 UNK         0.0378 
      9 C9         30.8722   -4.7841   -2.4021 C.ar      12 UNK        -0.0802 
     10 C10        31.9336   -4.2915   -3.1691 C.ar      12 UNK        -0.0944 
     11 C11        31.8024   -4.1351   -4.5535 C.ar      12 UNK        -0.0787 
     12 C12        30.5935   -4.4800   -5.1678 C.ar      12 UNK        -0.0862 
     13 C13        29.5198   -4.9536   -4.4095 C.ar      12 UNK        -0.0733 
     14 C14        29.6648   -5.1065   -3.0278 C.ar      12 UNK        -0.0832 
     15 C15        28.2033   -5.3070   -5.0797 C.3       12 UNK         0.0240 
     16 S16        27.1612   -3.8316   -5.2668 S.3       12 UNK        -0.2522 
     17 C17        27.3945   -3.4412   -7.0347 C.3       12 UNK        -0.0967 
     18 CA         26.7449   -2.1120   -7.5046 C.3       5 UNK         0.0660 
     19 N          25.3829   -1.9154   -6.9994 N.am      5 UNK        -0.4015 
     20 C          24.2900   -1.7931   -7.7658 C.2       4 UNK         0.4946 
     21 O          24.3103   -1.8094   -8.9973 O.2       4 UNK        -0.5353 
     22 CA         22.9304   -1.6442   -7.0560 C.3       4 UNK         0.0277 
     23 CB         22.2414   -3.0134   -6.9345 C.3       4 UNK        -0.1981 
     24 N          23.0224   -1.0365   -5.7281 N.am      4 UNK        -0.4209 
     25 C          23.3231    0.2484   -5.4942 C.2       3 UNK         0.4942 
     26 O          23.4721    1.0857   -6.3836 O.2       3 UNK        -0.5208 
     27 CA         23.5036    0.6739   -4.0228 C.3       3 UNK         0.0250 
     28 CB         22.2467    1.4014   -3.5183 C.3       3 UNK        -0.1990 
     29 N          23.8377   -0.4151   -3.0912 N.am      3 UNK        -0.4232 
     30 C          24.9216   -1.1962   -3.1877 C.2       2 UNK         0.4993 
     31 O          25.7049   -1.1514   -4.1369 O.2       2 UNK        -0.5286 
     32 CA         25.1449   -2.2359   -2.0813 C.3       2 UNK         0.0209 
     33 CB         24.4936   -3.5760   -2.4606 C.3       2 UNK        -0.1931 
     34 N          26.5810   -2.4364   -1.8666 N.am      2 UNK        -0.4546 
     35 C          27.3330   -1.6171   -1.1212 C.2       1 UNK         0.5154 
     36 O          26.8648   -0.6812   -0.4632 O.2       1 UNK        -0.5181 
     37 C          27.6221   -0.8847   -7.2121 C.2       5 UNK         0.5014 
     38 O          28.3068   -0.4191   -8.1240 O.2       5 UNK        -0.5248 
     39 N          27.5567   -0.3320   -5.9934 N.am      6 UNK        -0.4434 
     40 CA         28.2882    0.8610   -5.5537 C.3       6 UNK         0.0363 
     41 CB         28.3981    0.8377   -4.0195 C.3       6 UNK        -0.1936 
     42 C          27.6532    2.1589   -6.0903 C.2       6 UNK         0.5081 
     43 O          27.2517    3.0297   -5.3167 O.2       6 UNK        -0.5248 
     44 N          27.5737    2.2420   -7.4197 N.am      7 UNK        -0.4718 
     45 CA         27.0365    3.3287   -8.2353 C.3       7 UNK         0.0273 
     46 CB         25.5365    3.5653   -7.9642 C.3       7 UNK        -0.1935 
     47 C          27.2636    2.9891   -9.7133 C.2       7 UNK         0.5018 
     48 O          27.7115    3.8484  -10.4728 O.2       7 UNK        -0.5186 
     49 N          26.9631    1.7355  -10.0872 N.am      8 UNK        -0.4240 
     50 CA         27.2111    1.1779  -11.4179 C.3       8 UNK         0.0235 
     51 CB         26.3694   -0.0959  -11.6022 C.3       8 UNK        -0.2000 
     52 C          28.7020    0.8827  -11.6506 C.2       8 UNK         0.4941 
     53 O          29.2183    1.1823  -12.7283 O.2       8 UNK        -0.5273 
     54 N          29.3606    0.3138  -10.6344 N.am      9 UNK        -0.4262 
     55 CA         30.8001    0.0815  -10.5762 C.3       9 UNK         0.0264 
     56 CB         31.0432   -1.3211   -9.9894 C.3       9 UNK        -0.1955 
     57 C          31.4602    1.1555   -9.6983 C.2       9 UNK         0.5031 
     58 O          30.7749    1.8841   -8.9764 O.2       9 UNK        -0.5390 
     59 N          32.7970    1.2034   -9.7427 N.am      10 UNK        -0.4204 
     60 CA         33.6414    2.1268   -8.9740 C.3       10 UNK         0.0237 
     61 CB         35.0169    2.2169   -9.6605 C.3       10 UNK        -0.1985 
     62 C          33.7894    1.7720   -7.4768 C.2       10 UNK         0.4970 
     63 O          34.5831    2.4182   -6.7910 O.2       10 UNK        -0.4914 
     64 N          33.0611    0.7531   -7.0021 N.am      11 UNK        -0.4285 
     65 CA         33.0264    0.2707   -5.6144 C.3       11 UNK         0.1007 
     66 C          32.6349    1.3850   -4.6036 C.2       11 UNK         0.5703 
     67 N          33.4111    1.5693   -3.5438 N.am      11 UNK        -0.7361 
     68 O          31.6276    2.0698   -4.7692 O.2       11 UNK        -0.4986 
     69 C69        32.0801   -0.9500   -5.4766 C.3       12 UNK        -0.0947 
     70 S70        32.5315   -2.3316   -6.5785 S.3       12 UNK        -0.2240 
     71 C71        32.9831   -3.6307   -5.3799 C.3       12 UNK         0.0194 
     72 H72        32.0550    1.2231   -0.3722 H         1 UNK         0.0906 
     73 H73        30.9791    1.9674   -1.5591 H         1 UNK         0.0906 
     74 H74        30.3944    1.6238    0.0715 H         1 UNK         0.0906 
     75 H75        28.9264   -0.0856   -0.0424 H         1 UNK         0.3140 
     76 H76        29.1710   -2.1806   -2.0736 H         1 UNK         0.1085 
     77 H77        28.5988   -3.9511   -0.3581 H         1 UNK         0.0836 
     78 H78        28.8029   -2.7906    0.9223 H         1 UNK         0.0836 
     79 H79        32.0232   -5.4549   -0.7225 H         1 UNK         0.0731 
     80 H80        30.3135   -5.7267   -0.5317 H         1 UNK         0.0731 
     81 H81        32.8667   -4.0394   -2.6838 H         1 UNK         0.1312 
     82 H82        30.4861   -4.3723   -6.2380 H         1 UNK         0.1406 
     83 H83        28.8402   -5.4888   -2.4415 H         1 UNK         0.1631 
     84 H84        27.6625   -6.0430   -4.4830 H         1 UNK         0.0717 
     85 H85        28.3821   -5.7762   -6.0483 H         1 UNK         0.0717 
     86 H86        28.4599   -3.4565   -7.2728 H         1 UNK         0.0934 
     87 H87        26.9572   -4.2632   -7.6036 H         1 UNK         0.0934 
     88 H88        26.7114   -2.1730   -8.5945 H         1 UNK         0.0739 
     89 H89        25.2932   -1.8523   -5.9906 H         1 UNK         0.3093 
     90 H90        22.3053   -1.0010   -7.6794 H         1 UNK         0.0818 
     91 H91        21.2426   -2.9198   -6.5077 H         1 UNK         0.0819 
     92 H92        22.1302   -3.4818   -7.9136 H         1 UNK         0.0819 
     93 H93        22.8131   -3.7001   -6.3087 H         1 UNK         0.0819 
     94 H94        22.9024   -1.6485   -4.9346 H         1 UNK         0.3041 
     95 H95        24.3370    1.3799   -4.0030 H         1 UNK         0.0784 
     96 H96        21.9887    2.2355   -4.1727 H         1 UNK         0.0793 
     97 H97        21.3827    0.7366   -3.4821 H         1 UNK         0.0793 
     98 H98        22.3984    1.8127   -2.5202 H         1 UNK         0.0793 
     99 H99        23.2244   -0.5278   -2.2963 H         1 UNK         0.3024 
    100 H100       24.6883   -1.8761   -1.1561 H         1 UNK         0.1171 
    101 H101       23.4143   -3.4679   -2.5749 H         1 UNK         0.0786 
    102 H102       24.6615   -4.3294   -1.6908 H         1 UNK         0.0786 
    103 H103       24.8812   -3.9676   -3.4011 H         1 UNK         0.0786 
    104 H104       27.0251   -3.1399   -2.4396 H         1 UNK         0.2977 
    105 H105       26.9212   -0.7340   -5.3026 H         1 UNK         0.3127 
    106 H106       29.3009    0.8180   -5.9585 H         1 UNK         0.0770 
    107 H107       27.4210    0.9072   -3.5404 H         1 UNK         0.0814 
    108 H108       29.0020    1.6713   -3.6593 H         1 UNK         0.0814 
    109 H109       28.8765   -0.0799   -3.6788 H         1 UNK         0.0814 
    110 H110       27.9929    1.4723   -7.9353 H         1 UNK         0.2983 
    111 H111       27.5932    4.2387   -8.0028 H         1 UNK         0.0947 
    112 H112       25.1351    4.3273   -8.6336 H         1 UNK         0.0806 
    113 H113       25.3580    3.9110   -6.9464 H         1 UNK         0.0806 
    114 H114       24.9506    2.6578   -8.1133 H         1 UNK         0.0806 
    115 H115       26.5749    1.1071   -9.3990 H         1 UNK         0.3000 
    116 H116       26.8928    1.9096  -12.1638 H         1 UNK         0.0850 
    117 H117       26.5231   -0.5245  -12.5935 H         1 UNK         0.0810 
    118 H118       25.3041    0.1138  -11.5022 H         1 UNK         0.0810 
    119 H119       26.6272   -0.8635  -10.8712 H         1 UNK         0.0810 
    120 H120       28.8678    0.1348   -9.7617 H         1 UNK         0.3040 
    121 H121       31.2352    0.1303  -11.5766 H         1 UNK         0.0766 
    122 H122       30.6731   -1.4022   -8.9665 H         1 UNK         0.0812 
    123 H123       30.5454   -2.0882  -10.5826 H         1 UNK         0.0812 
    124 H124       32.1050   -1.5690   -9.9712 H         1 UNK         0.0812 
    125 H125       33.2830    0.5538  -10.3451 H         1 UNK         0.3205 
    126 H126       33.1815    3.1166   -9.0137 H         1 UNK         0.0754 
    127 H127       35.6556    2.9537   -9.1711 H         1 UNK         0.0769 
    128 H128       34.9218    2.5219  -10.7029 H         1 UNK         0.0769 
    129 H129       35.5432    1.2618   -9.6353 H         1 UNK         0.0769 
    130 H130       32.4203    0.2972   -7.6321 H         1 UNK         0.2981 
    131 H131       34.0382   -0.0632   -5.3766 H         1 UNK         0.0541 
    132 H132       33.1706    2.2889   -2.8822 H         1 UNK         0.3459 
    133 H133       34.2325    1.0051   -3.3952 H         1 UNK         0.3459 
    134 H134       31.0498   -0.6706   -5.6989 H         1 UNK         0.0612 
    135 H135       32.0784   -1.3080   -4.4469 H         1 UNK         0.0612 
    136 H136       33.7746   -3.2474   -4.7339 H         1 UNK         0.0624 
    137 H137       33.4093   -4.4734   -5.9253 H         1 UNK         0.0624 
@<TRIPOS>BOND
     1    1    2 1    
     2    1   72 1    
     3    1   73 1    
     4    1   74 1    
     5    2    3 2    
     6    2    4 am   BACKBONE|DICT|INTERRES
     7    4    5 1    
     8    4   75 1    
     9    5    6 1    
    10    5   35 1    
    11    5   76 1    
    12    6    7 1    
    13    6   77 1    
    14    6   78 1    
    15    7    8 1    
    16    8    9 1    
    17    8   79 1    
    18    8   80 1    
    19    9   10 ar   
    20    9   14 ar   
    21   10   11 ar   
    22   10   81 1    
    23   11   12 ar   
    24   11   71 1    
    25   12   13 ar   
    26   12   82 1    
    27   13   14 ar   
    28   13   15 1    
    29   14   83 1    
    30   15   16 1    
    31   15   84 1    
    32   15   85 1    
    33   16   17 1    
    34   17   18 1    
    35   17   86 1    
    36   17   87 1    
    37   18   19 1    
    38   18   37 1    
    39   18   88 1    
    40   19   20 am   BACKBONE|DICT|INTERRES
    41   19   89 1    
    42   20   21 2    
    43   20   22 1    
    44   22   23 1    
    45   22   24 1    
    46   22   90 1    
    47   23   91 1    
    48   23   92 1    
    49   23   93 1    
    50   24   25 am   BACKBONE|DICT|INTERRES
    51   24   94 1    
    52   25   26 2    
    53   25   27 1    
    54   27   28 1    
    55   27   29 1    
    56   27   95 1    
    57   28   96 1    
    58   28   97 1    
    59   28   98 1    
    60   29   30 am   BACKBONE|DICT|INTERRES
    61   29   99 1    
    62   30   31 2    
    63   30   32 1    
    64   32   33 1    
    65   32   34 1    
    66   32  100 1    
    67   33  101 1    
    68   33  102 1    
    69   33  103 1    
    70   34   35 am   BACKBONE|DICT|INTERRES
    71   34  104 1    
    72   35   36 2    
    73   37   38 2    
    74   37   39 am   BACKBONE|DICT|INTERRES
    75   39   40 1    
    76   39  105 1    
    77   40   41 1    
    78   40   42 1    
    79   40  106 1    
    80   41  107 1    
    81   41  108 1    
    82   41  109 1    
    83   42   43 2    
    84   42   44 am   BACKBONE|DICT|INTERRES
    85   44   45 1    
    86   44  110 1    
    87   45   46 1    
    88   45   47 1    
    89   45  111 1    
    90   46  112 1    
    91   46  113 1    
    92   46  114 1    
    93   47   48 2    
    94   47   49 am   BACKBONE|DICT|INTERRES
    95   49   50 1    
    96   49  115 1    
    97   50   51 1    
    98   50   52 1    
    99   50  116 1    
   100   51  117 1    
   101   51  118 1    
   102   51  119 1    
   103   52   53 2    
   104   52   54 am   BACKBONE|DICT|INTERRES
   105   54   55 1    
   106   54  120 1    
   107   55   56 1    
   108   55   57 1    
   109   55  121 1    
   110   56  122 1    
   111   56  123 1    
   112   56  124 1    
   113   57   58 2    
   114   57   59 am   BACKBONE|DICT|INTERRES
   115   59   60 1    
   116   59  125 1    
   117   60   61 1    
   118   60   62 1    
   119   60  126 1    
   120   61  127 1    
   121   61  128 1    
   122   61  129 1    
   123   62   63 2    
   124   62   64 am   BACKBONE|DICT|INTERRES
   125   64   65 1    
   126   64  130 1    
   127   65   66 1    
   128   65   69 1    
   129   65  131 1    
   130   66   67 am   BACKBONE|DICT|INTERRES
   131   66   68 2    
   132   67  132 1    
   133   67  133 1    
   134   69   70 1    
   135   69  134 1    
   136   69  135 1    
   137   70   71 1    
   138   71  136 1    
   139   71  137 1    
@<TRIPOS>SUBSTRUCTURE
     1 UNK         1 GROUP             0       ****    0 ROOT    
