@<TRIPOS>MOLECULE
3R137
137   139    1
SMALL
USER_CHARGES


@<TRIPOS>ATOM
      1 CA         29.4393   -4.5649   -2.9187 C.3       0 UNK        -0.2020 
      2 C          29.1777   -3.5907   -1.7823 C.2       0 UNK         0.4855 
      3 O          28.9572   -4.0211   -0.6502 O.2       0 UNK        -0.5197 
      4 N          29.1931   -2.2820   -2.0720 N.am      1 UNK        -0.4892 
      5 CA         28.9030   -1.2150   -1.1043 C.3       1 UNK         0.0835 
      6 C6         29.4341    0.1650   -1.5721 C.3       12 UNK        -0.0855 
      7 S7         28.7772    0.7397   -3.1805 S.3       12 UNK        -0.2931 
      8 C8         30.2775    0.8049   -4.2139 C.3       12 UNK         0.0378 
      9 C9         30.6873   -0.5842   -4.6736 C.ar      12 UNK        -0.0802 
     10 C10        31.7010   -1.2853   -4.0153 C.ar      12 UNK        -0.0944 
     11 C11        32.0517   -2.5758   -4.4248 C.ar      12 UNK        -0.0787 
     12 C12        31.3671   -3.1703   -5.4890 C.ar      12 UNK        -0.0862 
     13 C13        30.3548   -2.4753   -6.1560 C.ar      12 UNK        -0.0733 
     14 C14        30.0358   -1.1742   -5.7583 C.ar      12 UNK        -0.0832 
     15 C15        29.6068   -3.1304   -7.3062 C.3       12 UNK         0.0240 
     16 S16        28.3076   -4.2748   -6.7347 S.3       12 UNK        -0.2522 
     17 C17        27.1547   -3.1987   -5.8111 C.3       12 UNK        -0.0967 
     18 CA         26.1063   -2.5014   -6.7234 C.3       5 UNK         0.0660 
     19 N          24.7541   -2.6024   -6.1673 N.am      5 UNK        -0.4015 
     20 C          23.6466   -2.8656   -6.8741 C.2       4 UNK         0.4946 
     21 O          23.6401   -3.0754   -8.0878 O.2       4 UNK        -0.5353 
     22 CA         22.3124   -2.9181   -6.1045 C.3       4 UNK         0.0277 
     23 CB         21.9774   -4.3673   -5.7154 C.3       4 UNK        -0.1981 
     24 N          22.2931   -2.0811   -4.9021 N.am      4 UNK        -0.4209 
     25 C          22.2748   -0.7411   -4.9100 C.2       3 UNK         0.4942 
     26 O          22.2157   -0.0632   -5.9358 O.2       3 UNK        -0.5208 
     27 CA         22.3617   -0.0307   -3.5457 C.3       3 UNK         0.0250 
     28 CB         20.9504    0.2410   -2.9998 C.3       3 UNK        -0.1990 
     29 N          23.1554   -0.7145   -2.5133 N.am      3 UNK        -0.4232 
     30 C          24.4109   -1.1659   -2.6432 C.2       2 UNK         0.4993 
     31 O          25.0265   -1.2014   -3.7125 O.2       2 UNK        -0.5286 
     32 CA         25.0768   -1.7096   -1.3766 C.3       2 UNK         0.0209 
     33 CB         24.6518   -3.1665   -1.1272 C.3       2 UNK        -0.1931 
     34 N          26.5250   -1.6640   -1.5565 N.am      2 UNK        -0.4546 
     35 C          27.4135   -1.1608   -0.6917 C.2       1 UNK         0.5154 
     36 O          27.1063   -0.6856    0.4032 O.2       1 UNK        -0.5181 
     37 C          26.4805   -1.0283   -6.9809 C.2       5 UNK         0.5014 
     38 O          27.2050   -0.7542   -7.9367 O.2       5 UNK        -0.5248 
     39 N          25.9753   -0.1070   -6.1442 N.am      6 UNK        -0.4434 
     40 CA         26.2730    1.3337   -6.0981 C.3       6 UNK         0.0363 
     41 CB         25.5210    1.9541   -4.9090 C.3       6 UNK        -0.1936 
     42 C          26.0168    2.1532   -7.3817 C.2       6 UNK         0.5081 
     43 O          26.2952    3.3533   -7.3891 O.2       6 UNK        -0.5248 
     44 N          25.5234    1.5165   -8.4519 N.am      7 UNK        -0.4718 
     45 CA         25.5749    2.0371   -9.8199 C.3       7 UNK         0.0273 
     46 CB         24.7530    1.1226  -10.7418 C.3       7 UNK        -0.1935 
     47 C          27.0235    2.1721  -10.3347 C.2       7 UNK         0.5018 
     48 O          27.2969    3.0763  -11.1253 O.2       7 UNK        -0.5186 
     49 N          27.9248    1.3015   -9.8554 N.am      8 UNK        -0.4240 
     50 CA         29.3715    1.4466   -9.9925 C.3       8 UNK         0.0235 
     51 CB         30.0209    0.0548  -10.0434 C.3       8 UNK        -0.2000 
     52 C          29.8987    2.2389   -8.7877 C.2       8 UNK         0.4941 
     53 O          29.4851    1.9750   -7.6573 O.2       8 UNK        -0.5273 
     54 N          30.8140    3.1816   -9.0427 N.am      9 UNK        -0.4262 
     55 CA         31.3874    4.0700   -8.0248 C.3       9 UNK         0.0264 
     56 CB         32.0306    5.2793   -8.7246 C.3       9 UNK        -0.1955 
     57 C          32.4056    3.3904   -7.0889 C.2       9 UNK         0.5031 
     58 O          32.6998    3.9408   -6.0265 O.2       9 UNK        -0.5390 
     59 N          32.9398    2.2347   -7.4956 N.am      10 UNK        -0.4204 
     60 CA         33.9348    1.4467   -6.7764 C.3       10 UNK         0.0237 
     61 CB         35.3396    2.0382   -7.0110 C.3       10 UNK        -0.1985 
     62 C          33.8486   -0.0074   -7.2543 C.2       10 UNK         0.4970 
     63 O          33.1316   -0.2941   -8.2171 O.2       10 UNK        -0.4914 
     64 N          34.5925   -0.8894   -6.5777 N.am      11 UNK        -0.4285 
     65 CA         34.6093   -2.3410   -6.8209 C.3       11 UNK         0.1007 
     66 C          35.2348   -2.7894   -8.1747 C.2       11 UNK         0.5703 
     67 N          35.9446   -1.9316   -8.8984 N.am      11 UNK        -0.7361 
     68 O          35.0713   -3.9397   -8.5745 O.2       11 UNK        -0.4986 
     69 C69        35.2385   -3.1345   -5.6393 C.3       12 UNK        -0.0947 
     70 S70        34.7833   -2.5535   -3.9671 S.3       12 UNK        -0.2240 
     71 C71        33.1585   -3.3294   -3.7029 C.3       12 UNK         0.0194 
     72 H72        28.7630   -5.4166   -2.8517 H         1 UNK         0.0906 
     73 H73        29.2865   -4.0962   -3.8882 H         1 UNK         0.0906 
     74 H74        30.4628   -4.9351   -2.8713 H         1 UNK         0.0906 
     75 H75        29.4164   -1.9688   -3.0080 H         1 UNK         0.3140 
     76 H76        29.4463   -1.4630   -0.1894 H         1 UNK         0.1085 
     77 H77        29.2095    0.9280   -0.8241 H         1 UNK         0.0836 
     78 H78        30.5229    0.1300   -1.6193 H         1 UNK         0.0836 
     79 H79        31.0878    1.2942   -3.6712 H         1 UNK         0.0731 
     80 H80        30.0778    1.4312   -5.0845 H         1 UNK         0.0731 
     81 H81        32.2194   -0.8308   -3.1822 H         1 UNK         0.1312 
     82 H82        31.6199   -4.1747   -5.8005 H         1 UNK         0.1406 
     83 H83        29.2658   -0.6207   -6.2785 H         1 UNK         0.1631 
     84 H84        30.3133   -3.6864   -7.9242 H         1 UNK         0.0717 
     85 H85        29.1670   -2.3819   -7.9624 H         1 UNK         0.0717 
     86 H86        26.6515   -3.8583   -5.1020 H         1 UNK         0.0934 
     87 H87        27.7016   -2.4955   -5.1814 H         1 UNK         0.0934 
     88 H88        26.1129   -2.9956   -7.6973 H         1 UNK         0.0739 
     89 H89        24.6633   -2.3712   -5.1827 H         1 UNK         0.3093 
     90 H90        21.5328   -2.5578   -6.7794 H         1 UNK         0.0818 
     91 H91        21.9559   -5.0121   -6.5952 H         1 UNK         0.0819 
     92 H92        22.7135   -4.7824   -5.0258 H         1 UNK         0.0819 
     93 H93        20.9971   -4.4356   -5.2432 H         1 UNK         0.0819 
     94 H94        22.3321   -2.5540   -4.0109 H         1 UNK         0.3041 
     95 H95        22.8404    0.9336   -3.7193 H         1 UNK         0.0784 
     96 H96        20.3415    0.7705   -3.7344 H         1 UNK         0.0793 
     97 H97        20.4287   -0.6839   -2.7504 H         1 UNK         0.0793 
     98 H98        20.9822    0.8618   -2.1042 H         1 UNK         0.0793 
     99 H99        22.7276   -0.7655   -1.5995 H         1 UNK         0.3024 
    100 H100       24.7772   -1.0864   -0.5308 H         1 UNK         0.1171 
    101 H101       23.5751   -3.2439   -0.9710 H         1 UNK         0.0786 
    102 H102       24.9094   -3.8123   -1.9680 H         1 UNK         0.0786 
    103 H103       25.1366   -3.5705   -0.2381 H         1 UNK         0.0786 
    104 H104       26.8532   -1.9427   -2.4705 H         1 UNK         0.2977 
    105 H105       25.4409   -0.4524   -5.3509 H         1 UNK         0.3127 
    106 H106       27.3429    1.4186   -5.8984 H         1 UNK         0.0770 
    107 H107       24.4432    1.9243   -5.0660 H         1 UNK         0.0814 
    108 H108       25.8010    2.9988   -4.7684 H         1 UNK         0.0814 
    109 H109       25.7476    1.4371   -3.9766 H         1 UNK         0.0814 
    110 H110       25.3430    0.5278   -8.3524 H         1 UNK         0.2983 
    111 H111       25.1253    3.0324   -9.8246 H         1 UNK         0.0947 
    112 H112       25.1520    0.1076  -10.7642 H         1 UNK         0.0806 
    113 H113       24.7570    1.4978  -11.7662 H         1 UNK         0.0806 
    114 H114       23.7123    1.0680  -10.4216 H         1 UNK         0.0806 
    115 H115       27.6189    0.6190   -9.1641 H         1 UNK         0.3000 
    116 H116       29.6063    1.9765  -10.9183 H         1 UNK         0.0850 
    117 H117       31.0957    0.1307  -10.2125 H         1 UNK         0.0810 
    118 H118       29.6052   -0.5509  -10.8486 H         1 UNK         0.0810 
    119 H119       29.8794   -0.4862   -9.1078 H         1 UNK         0.0810 
    120 H120       31.1114    3.3335   -9.9963 H         1 UNK         0.3040 
    121 H121       30.5717    4.4366   -7.3974 H         1 UNK         0.0766 
    122 H122       31.3027    5.8250   -9.3254 H         1 UNK         0.0812 
    123 H123       32.8509    4.9792   -9.3779 H         1 UNK         0.0812 
    124 H124       32.4364    5.9822   -7.9956 H         1 UNK         0.0812 
    125 H125       32.5947    1.7945   -8.3396 H         1 UNK         0.3205 
    126 H126       33.6990    1.4622   -5.7099 H         1 UNK         0.0754 
    127 H127       36.1039    1.4811   -6.4683 H         1 UNK         0.0769 
    128 H128       35.3974    3.0716   -6.6683 H         1 UNK         0.0769 
    129 H129       35.6099    2.0232   -8.0677 H         1 UNK         0.0769 
    130 H130       35.1520   -0.5733   -5.7998 H         1 UNK         0.2981 
    131 H131       33.5656   -2.6429   -6.8916 H         1 UNK         0.0541 
    132 H132       36.0792   -0.9856   -8.5811 H         1 UNK         0.3459 
    133 H133       36.3417   -2.2339   -9.7737 H         1 UNK         0.3459 
    134 H134       34.9888   -4.1939   -5.7201 H         1 UNK         0.0612 
    135 H135       36.3273   -3.0805   -5.6965 H         1 UNK         0.0612 
    136 H136       33.1955   -4.3750   -4.0119 H         1 UNK         0.0624 
    137 H137       32.9421   -3.3326   -2.6338 H         1 UNK         0.0624 
@<TRIPOS>BOND
     1    1    2 1    
     2    1   72 1    
     3    1   73 1    
     4    1   74 1    
     5    2    3 2    
     6    2    4 am   BACKBONE|DICT|INTERRES
     7    4    5 1    
     8    4   75 1    
     9    5    6 1    
    10    5   35 1    
    11    5   76 1    
    12    6    7 1    
    13    6   77 1    
    14    6   78 1    
    15    7    8 1    
    16    8    9 1    
    17    8   79 1    
    18    8   80 1    
    19    9   10 ar   
    20    9   14 ar   
    21   10   11 ar   
    22   10   81 1    
    23   11   12 ar   
    24   11   71 1    
    25   12   13 ar   
    26   12   82 1    
    27   13   14 ar   
    28   13   15 1    
    29   14   83 1    
    30   15   16 1    
    31   15   84 1    
    32   15   85 1    
    33   16   17 1    
    34   17   18 1    
    35   17   86 1    
    36   17   87 1    
    37   18   19 1    
    38   18   37 1    
    39   18   88 1    
    40   19   20 am   BACKBONE|DICT|INTERRES
    41   19   89 1    
    42   20   21 2    
    43   20   22 1    
    44   22   23 1    
    45   22   24 1    
    46   22   90 1    
    47   23   91 1    
    48   23   92 1    
    49   23   93 1    
    50   24   25 am   BACKBONE|DICT|INTERRES
    51   24   94 1    
    52   25   26 2    
    53   25   27 1    
    54   27   28 1    
    55   27   29 1    
    56   27   95 1    
    57   28   96 1    
    58   28   97 1    
    59   28   98 1    
    60   29   30 am   BACKBONE|DICT|INTERRES
    61   29   99 1    
    62   30   31 2    
    63   30   32 1    
    64   32   33 1    
    65   32   34 1    
    66   32  100 1    
    67   33  101 1    
    68   33  102 1    
    69   33  103 1    
    70   34   35 am   BACKBONE|DICT|INTERRES
    71   34  104 1    
    72   35   36 2    
    73   37   38 2    
    74   37   39 am   BACKBONE|DICT|INTERRES
    75   39   40 1    
    76   39  105 1    
    77   40   41 1    
    78   40   42 1    
    79   40  106 1    
    80   41  107 1    
    81   41  108 1    
    82   41  109 1    
    83   42   43 2    
    84   42   44 am   BACKBONE|DICT|INTERRES
    85   44   45 1    
    86   44  110 1    
    87   45   46 1    
    88   45   47 1    
    89   45  111 1    
    90   46  112 1    
    91   46  113 1    
    92   46  114 1    
    93   47   48 2    
    94   47   49 am   BACKBONE|DICT|INTERRES
    95   49   50 1    
    96   49  115 1    
    97   50   51 1    
    98   50   52 1    
    99   50  116 1    
   100   51  117 1    
   101   51  118 1    
   102   51  119 1    
   103   52   53 2    
   104   52   54 am   BACKBONE|DICT|INTERRES
   105   54   55 1    
   106   54  120 1    
   107   55   56 1    
   108   55   57 1    
   109   55  121 1    
   110   56  122 1    
   111   56  123 1    
   112   56  124 1    
   113   57   58 2    
   114   57   59 am   BACKBONE|DICT|INTERRES
   115   59   60 1    
   116   59  125 1    
   117   60   61 1    
   118   60   62 1    
   119   60  126 1    
   120   61  127 1    
   121   61  128 1    
   122   61  129 1    
   123   62   63 2    
   124   62   64 am   BACKBONE|DICT|INTERRES
   125   64   65 1    
   126   64  130 1    
   127   65   66 1    
   128   65   69 1    
   129   65  131 1    
   130   66   67 am   BACKBONE|DICT|INTERRES
   131   66   68 2    
   132   67  132 1    
   133   67  133 1    
   134   69   70 1    
   135   69  134 1    
   136   69  135 1    
   137   70   71 1    
   138   71  136 1    
   139   71  137 1    
@<TRIPOS>SUBSTRUCTURE
     1 UNK         1 GROUP             0       ****    0 ROOT    
