@<TRIPOS>MOLECULE
3R137
137   139    1
SMALL
USER_CHARGES


@<TRIPOS>ATOM
      1 CA         28.5298    0.3851    3.7571 C.3       0 UNK        -0.2020 
      2 C          28.8969   -0.3967    2.5046 C.2       0 UNK         0.4855 
      3 O          30.0757   -0.4838    2.1602 O.2       0 UNK        -0.5197 
      4 N          27.8983   -0.9616    1.8190 N.am      1 UNK        -0.4892 
      5 CA         28.0307   -1.7047    0.5666 C.3       1 UNK         0.0835 
      6 C6         28.6364   -3.1263    0.7795 C.3       12 UNK        -0.0855 
      7 S7         29.2667   -4.0381   -0.6846 S.3       12 UNK        -0.2931 
      8 C8         29.8405   -2.7591   -1.8567 C.3       12 UNK         0.0378 
      9 C9         30.1328   -3.3194   -3.2438 C.ar      12 UNK        -0.0802 
     10 C10        31.3112   -2.9726   -3.9114 C.ar      12 UNK        -0.0944 
     11 C11        31.5527   -3.4296   -5.2111 C.ar      12 UNK        -0.0787 
     12 C12        30.6040   -4.2397   -5.8468 C.ar      12 UNK        -0.0862 
     13 C13        29.4272   -4.6052   -5.1853 C.ar      12 UNK        -0.0733 
     14 C14        29.1978   -4.1343   -3.8905 C.ar      12 UNK        -0.0832 
     15 C15        28.4290   -5.5612   -5.8262 C.3       12 UNK         0.0240 
     16 S16        26.7907   -4.8031   -6.0881 S.3       12 UNK        -0.2522 
     17 C17        26.8388   -4.3390   -7.8545 C.3       12 UNK        -0.0967 
     18 CA         26.5393   -2.8465   -8.1344 C.3       5 UNK         0.0660 
     19 N          25.2993   -2.3750   -7.5100 N.am      5 UNK        -0.4015 
     20 C          24.7091   -1.2046   -7.7950 C.2       4 UNK         0.4946 
     21 O          25.1294   -0.4136   -8.6393 O.2       4 UNK        -0.5353 
     22 CA         23.5096   -0.8062   -6.9343 C.3       4 UNK         0.0277 
     23 CB         22.4525   -1.9207   -6.8243 C.3       4 UNK        -0.1981 
     24 N          24.0304   -0.4734   -5.6158 N.am      4 UNK        -0.4209 
     25 C          23.8141    0.6469   -4.9252 C.2       3 UNK         0.4942 
     26 O          23.0265    1.5257   -5.2789 O.2       3 UNK        -0.5208 
     27 CA         24.6372    0.8128   -3.6263 C.3       3 UNK         0.0250 
     28 CB         24.1531    1.9973   -2.7690 C.3       3 UNK        -0.1990 
     29 N          24.6953   -0.3885   -2.7802 N.am      3 UNK        -0.4232 
     30 C          25.3308   -1.5369   -3.0517 C.2       2 UNK         0.4993 
     31 O          25.9504   -1.7470   -4.0997 O.2       2 UNK        -0.5286 
     32 CA         25.2654   -2.6259   -1.9705 C.3       2 UNK         0.0209 
     33 CB         25.1458   -4.0315   -2.5847 C.3       2 UNK        -0.1931 
     34 N          26.4598   -2.5642   -1.1299 N.am      2 UNK        -0.4546 
     35 C          26.6525   -1.6919   -0.1334 C.2       1 UNK         0.5154 
     36 O          25.7859   -0.8929    0.2363 O.2       1 UNK        -0.5181 
     37 C          27.7398   -1.9391   -7.8102 C.2       5 UNK         0.5014 
     38 O          28.5234   -1.6506   -8.7151 O.2       5 UNK        -0.5248 
     39 N          27.8270   -1.4511   -6.5617 N.am      6 UNK        -0.4434 
     40 CA         28.8511   -0.4978   -6.1296 C.3       6 UNK         0.0363 
     41 CB         28.7348   -0.2573   -4.6189 C.3       6 UNK        -0.1936 
     42 C          28.7652    0.8420   -6.8732 C.2       6 UNK         0.5081 
     43 O          29.8002    1.4145   -7.2077 O.2       6 UNK        -0.5248 
     44 N          27.5346    1.3050   -7.1316 N.am      7 UNK        -0.4718 
     45 CA         27.2559    2.5252   -7.8862 C.3       7 UNK         0.0273 
     46 CB         25.7993    2.9589   -7.6524 C.3       7 UNK        -0.1935 
     47 C          27.5533    2.3499   -9.3829 C.2       7 UNK         0.5018 
     48 O          28.1910    3.2211   -9.9737 O.2       7 UNK        -0.5186 
     49 N          27.1137    1.2206   -9.9580 N.am      8 UNK        -0.4240 
     50 CA         27.3192    0.8629  -11.3638 C.3       8 UNK         0.0235 
     51 CB         26.5022   -0.3944  -11.7021 C.3       8 UNK        -0.2000 
     52 C          28.7987    0.6632  -11.7311 C.2       8 UNK         0.4941 
     53 O          29.2361    1.1723  -12.7637 O.2       8 UNK        -0.5273 
     54 N          29.5431   -0.0593  -10.8826 N.am      9 UNK        -0.4262 
     55 CA         30.9739   -0.3211  -11.0640 C.3       9 UNK         0.0264 
     56 CB         31.3333   -1.6355  -10.3541 C.3       9 UNK        -0.1955 
     57 C          31.8790    0.8290  -10.5816 C.2       9 UNK         0.5031 
     58 O          33.0731    0.8026  -10.8842 O.2       9 UNK        -0.5390 
     59 N          31.3121    1.8020   -9.8503 N.am      10 UNK        -0.4204 
     60 CA         31.9745    2.9510   -9.2183 C.3       10 UNK         0.0237 
     61 CB         32.5272    3.9261  -10.2799 C.3       10 UNK        -0.1985 
     62 C          33.0266    2.5158   -8.1784 C.2       10 UNK         0.4970 
     63 O          34.1665    2.9852   -8.2077 O.2       10 UNK        -0.4914 
     64 N          32.6174    1.6039   -7.2906 N.am      11 UNK        -0.4285 
     65 CA         33.4303    1.0531   -6.1990 C.3       11 UNK         0.1007 
     66 C          33.6728    2.0870   -5.0665 C.2       11 UNK         0.5703 
     67 N          34.8003    1.9920   -4.3746 N.am      11 UNK        -0.7361 
     68 O          32.8393    2.9462   -4.7835 O.2       11 UNK        -0.4986 
     69 C69        32.8093   -0.2518   -5.6363 C.3       12 UNK        -0.0947 
     70 S70        32.7051   -1.5580   -6.9054 S.3       12 UNK        -0.2240 
     71 C71        32.8543   -3.0762   -5.9166 C.3       12 UNK         0.0194 
     72 H72        28.8496    1.4221    3.6595 H         1 UNK         0.0906 
     73 H73        27.4559    0.3774    3.9429 H         1 UNK         0.0906 
     74 H74        29.0269   -0.0445    4.6263 H         1 UNK         0.0906 
     75 H75        26.9341   -0.8002    2.0881 H         1 UNK         0.3140 
     76 H76        28.7002   -1.1075   -0.0519 H         1 UNK         0.1085 
     77 H77        27.9139   -3.7650    1.2911 H         1 UNK         0.0836 
     78 H78        29.4829   -3.0572    1.4641 H         1 UNK         0.0836 
     79 H79        29.0801   -1.9933   -1.9883 H         1 UNK         0.0731 
     80 H80        30.7197   -2.2658   -1.4388 H         1 UNK         0.0731 
     81 H81        32.0399   -2.3395   -3.4241 H         1 UNK         0.1312 
     82 H82        30.7945   -4.6022   -6.8477 H         1 UNK         0.1406 
     83 H83        28.2856   -4.4116   -3.3833 H         1 UNK         0.1631 
     84 H84        28.3022   -6.4168   -5.1614 H         1 UNK         0.0717 
     85 H85        28.8160   -5.9698   -6.7604 H         1 UNK         0.0717 
     86 H86        27.7952   -4.6218   -8.2985 H         1 UNK         0.0934 
     87 H87        26.0957   -4.9520   -8.3667 H         1 UNK         0.0934 
     88 H88        26.3863   -2.7616   -9.2124 H         1 UNK         0.0739 
     89 H89        24.9198   -2.9657   -6.7843 H         1 UNK         0.3093 
     90 H90        23.0482    0.0696   -7.3962 H         1 UNK         0.0818 
     91 H91        21.5705   -1.5657   -6.2909 H         1 UNK         0.0819 
     92 H92        22.1225   -2.2456   -7.8120 H         1 UNK         0.0819 
     93 H93        22.8237   -2.7979   -6.2936 H         1 UNK         0.0819 
     94 H94        24.7263   -1.1074   -5.2255 H         1 UNK         0.3041 
     95 H95        25.6561    1.0402   -3.9429 H         1 UNK         0.0784 
     96 H96        24.1785    2.9297   -3.3349 H         1 UNK         0.0793 
     97 H97        23.1287    1.8517   -2.4241 H         1 UNK         0.0793 
     98 H98        24.7865    2.1389   -1.8929 H         1 UNK         0.0793 
     99 H99        24.2337   -0.3115   -1.8844 H         1 UNK         0.3024 
    100 H100       24.3798   -2.4581   -1.3529 H         1 UNK         0.1171 
    101 H101       24.2598   -4.1057   -3.2166 H         1 UNK         0.0786 
    102 H102       25.0584   -4.7957   -1.8124 H         1 UNK         0.0786 
    103 H103       26.0050   -4.2812   -3.2055 H         1 UNK         0.0786 
    104 H104       27.2132   -3.1993   -1.3594 H         1 UNK         0.2977 
    105 H105       27.1648   -1.7596   -5.8575 H         1 UNK         0.3127 
    106 H106       29.8223   -0.9486   -6.3393 H         1 UNK         0.0770 
    107 H107       27.8457    0.3185   -4.3649 H         1 UNK         0.0814 
    108 H108       29.5980    0.2905   -4.2402 H         1 UNK         0.0814 
    109 H109       28.6761   -1.1983   -4.0804 H         1 UNK         0.0814 
    110 H110       26.7427    0.7398   -6.8647 H         1 UNK         0.2983 
    111 H111       27.9090    3.3158   -7.5092 H         1 UNK         0.0947 
    112 H112       25.5782    3.8821   -8.1896 H         1 UNK         0.0806 
    113 H113       25.6055    3.1458   -6.5960 H         1 UNK         0.0806 
    114 H114       25.0874    2.2066   -7.9934 H         1 UNK         0.0806 
    115 H115       26.5518    0.5785   -9.4030 H         1 UNK         0.3000 
    116 H116       26.9381    1.6875  -11.9699 H         1 UNK         0.0850 
    117 H117       26.6137   -0.6622  -12.7537 H         1 UNK         0.0810 
    118 H118       25.4391   -0.2378  -11.5178 H         1 UNK         0.0810 
    119 H119       26.8203   -1.2530  -11.1102 H         1 UNK         0.0810 
    120 H120       29.1019   -0.4906  -10.0711 H         1 UNK         0.3040 
    121 H121       31.1739   -0.4562  -12.1292 H         1 UNK         0.0766 
    122 H122       32.3949   -1.8649  -10.4556 H         1 UNK         0.0812 
    123 H123       30.7768   -2.4754  -10.7697 H         1 UNK         0.0812 
    124 H124       31.1096   -1.5848   -9.2894 H         1 UNK         0.0812 
    125 H125       30.3282    1.7060   -9.6366 H         1 UNK         0.3205 
    126 H126       31.1979    3.4791   -8.6625 H         1 UNK         0.0754 
    127 H127       32.9167    4.8310   -9.8120 H         1 UNK         0.0769 
    128 H128       31.7481    4.2319  -10.9783 H         1 UNK         0.0769 
    129 H129       33.3399    3.4833  -10.8564 H         1 UNK         0.0769 
    130 H130       31.6340    1.3430   -7.2935 H         1 UNK         0.2981 
    131 H131       34.4053    0.8024   -6.6221 H         1 UNK         0.0541 
    132 H132       35.4873    1.2862   -4.5896 H         1 UNK         0.3459 
    133 H133       34.9713    2.6451   -3.6260 H         1 UNK         0.3459 
    134 H134       31.8112   -0.0665   -5.2382 H         1 UNK         0.0612 
    135 H135       33.4090   -0.6252   -4.8046 H         1 UNK         0.0612 
    136 H136       33.6676   -2.9734   -5.1968 H         1 UNK         0.0624 
    137 H137       33.1428   -3.8924   -6.5805 H         1 UNK         0.0624 
@<TRIPOS>BOND
     1    1    2 1    
     2    1   72 1    
     3    1   73 1    
     4    1   74 1    
     5    2    3 2    
     6    2    4 am   BACKBONE|DICT|INTERRES
     7    4    5 1    
     8    4   75 1    
     9    5    6 1    
    10    5   35 1    
    11    5   76 1    
    12    6    7 1    
    13    6   77 1    
    14    6   78 1    
    15    7    8 1    
    16    8    9 1    
    17    8   79 1    
    18    8   80 1    
    19    9   10 ar   
    20    9   14 ar   
    21   10   11 ar   
    22   10   81 1    
    23   11   12 ar   
    24   11   71 1    
    25   12   13 ar   
    26   12   82 1    
    27   13   14 ar   
    28   13   15 1    
    29   14   83 1    
    30   15   16 1    
    31   15   84 1    
    32   15   85 1    
    33   16   17 1    
    34   17   18 1    
    35   17   86 1    
    36   17   87 1    
    37   18   19 1    
    38   18   37 1    
    39   18   88 1    
    40   19   20 am   BACKBONE|DICT|INTERRES
    41   19   89 1    
    42   20   21 2    
    43   20   22 1    
    44   22   23 1    
    45   22   24 1    
    46   22   90 1    
    47   23   91 1    
    48   23   92 1    
    49   23   93 1    
    50   24   25 am   BACKBONE|DICT|INTERRES
    51   24   94 1    
    52   25   26 2    
    53   25   27 1    
    54   27   28 1    
    55   27   29 1    
    56   27   95 1    
    57   28   96 1    
    58   28   97 1    
    59   28   98 1    
    60   29   30 am   BACKBONE|DICT|INTERRES
    61   29   99 1    
    62   30   31 2    
    63   30   32 1    
    64   32   33 1    
    65   32   34 1    
    66   32  100 1    
    67   33  101 1    
    68   33  102 1    
    69   33  103 1    
    70   34   35 am   BACKBONE|DICT|INTERRES
    71   34  104 1    
    72   35   36 2    
    73   37   38 2    
    74   37   39 am   BACKBONE|DICT|INTERRES
    75   39   40 1    
    76   39  105 1    
    77   40   41 1    
    78   40   42 1    
    79   40  106 1    
    80   41  107 1    
    81   41  108 1    
    82   41  109 1    
    83   42   43 2    
    84   42   44 am   BACKBONE|DICT|INTERRES
    85   44   45 1    
    86   44  110 1    
    87   45   46 1    
    88   45   47 1    
    89   45  111 1    
    90   46  112 1    
    91   46  113 1    
    92   46  114 1    
    93   47   48 2    
    94   47   49 am   BACKBONE|DICT|INTERRES
    95   49   50 1    
    96   49  115 1    
    97   50   51 1    
    98   50   52 1    
    99   50  116 1    
   100   51  117 1    
   101   51  118 1    
   102   51  119 1    
   103   52   53 2    
   104   52   54 am   BACKBONE|DICT|INTERRES
   105   54   55 1    
   106   54  120 1    
   107   55   56 1    
   108   55   57 1    
   109   55  121 1    
   110   56  122 1    
   111   56  123 1    
   112   56  124 1    
   113   57   58 2    
   114   57   59 am   BACKBONE|DICT|INTERRES
   115   59   60 1    
   116   59  125 1    
   117   60   61 1    
   118   60   62 1    
   119   60  126 1    
   120   61  127 1    
   121   61  128 1    
   122   61  129 1    
   123   62   63 2    
   124   62   64 am   BACKBONE|DICT|INTERRES
   125   64   65 1    
   126   64  130 1    
   127   65   66 1    
   128   65   69 1    
   129   65  131 1    
   130   66   67 am   BACKBONE|DICT|INTERRES
   131   66   68 2    
   132   67  132 1    
   133   67  133 1    
   134   69   70 1    
   135   69  134 1    
   136   69  135 1    
   137   70   71 1    
   138   71  136 1    
   139   71  137 1    
@<TRIPOS>SUBSTRUCTURE
     1 UNK         1 GROUP             0       ****    0 ROOT    
