@<TRIPOS>MOLECULE
3R137
137   139    1
SMALL
USER_CHARGES


@<TRIPOS>ATOM
      1 CA         31.2537    0.1392   -0.1358 C.3       0 UNK        -0.2020 
      2 C          30.2042   -0.6724   -0.8801 C.2       0 UNK         0.4855 
      3 O          29.6732   -0.2030   -1.8844 O.2       0 UNK        -0.5197 
      4 N          29.9103   -1.8864   -0.3983 N.am      1 UNK        -0.4892 
      5 CA         28.9531   -2.8274   -0.9940 C.3       1 UNK         0.0835 
      6 C6         29.0360   -4.2330   -0.3379 C.3       12 UNK        -0.0855 
      7 S7         30.7347   -4.8903   -0.1889 S.3       12 UNK        -0.2931 
      8 C8         30.8979   -5.8845   -1.7055 C.3       12 UNK         0.0378 
      9 C9         30.9194   -5.0147   -2.9538 C.ar      12 UNK        -0.0802 
     10 C10        31.9878   -4.1415   -3.1824 C.ar      12 UNK        -0.0944 
     11 C11        32.0177   -3.3366   -4.3246 C.ar      12 UNK        -0.0787 
     12 C12        30.9657   -3.4101   -5.2417 C.ar      12 UNK        -0.0862 
     13 C13        29.8965   -4.2863   -5.0305 C.ar      12 UNK        -0.0733 
     14 C14        29.8799   -5.0890   -3.8858 C.ar      12 UNK        -0.0832 
     15 C15        28.7846   -4.3956   -6.0623 C.3       12 UNK         0.0240 
     16 S16        27.1661   -3.9027   -5.3908 S.3       12 UNK        -0.2522 
     17 C17        26.2015   -3.8088   -6.9423 C.3       12 UNK        -0.0967 
     18 CA         25.8602   -2.3865   -7.4686 C.3       5 UNK         0.0660 
     19 N          24.7092   -1.7847   -6.7902 N.am      5 UNK        -0.4015 
     20 C          23.8109   -1.0037   -7.4106 C.2       4 UNK         0.4946 
     21 O          23.8384   -0.7522   -8.6162 O.2       4 UNK        -0.5353 
     22 CA         22.6864   -0.3923   -6.5570 C.3       4 UNK         0.0277 
     23 CB         21.5014   -1.3658   -6.4511 C.3       4 UNK        -0.1981 
     24 N          23.1137    0.0024   -5.2149 N.am      4 UNK        -0.4209 
     25 C          23.9978    0.9737   -4.9478 C.2       3 UNK         0.4942 
     26 O          24.5535    1.6580   -5.8081 O.2       3 UNK        -0.5208 
     27 CA         24.3512    1.1854   -3.4637 C.3       3 UNK         0.0250 
     28 CB         23.3393    2.1353   -2.8027 C.3       3 UNK        -0.1990 
     29 N          24.4537   -0.0506   -2.6726 N.am      3 UNK        -0.4232 
     30 C          25.2216   -1.1039   -2.9854 C.2       2 UNK         0.4993 
     31 O          25.8460   -1.2049   -4.0417 O.2       2 UNK        -0.5286 
     32 CA         25.2721   -2.2646   -1.9882 C.3       2 UNK         0.0209 
     33 CB         24.4009   -3.4307   -2.4838 C.3       2 UNK        -0.1931 
     34 N          26.6585   -2.7177   -1.8677 N.am      2 UNK        -0.4546 
     35 C          27.5030   -2.3003   -0.9165 C.2       1 UNK         0.5154 
     36 O          27.1628   -1.5739    0.0226 O.2       1 UNK        -0.5181 
     37 C          27.0515   -1.4095   -7.4811 C.2       5 UNK         0.5014 
     38 O          27.7476   -1.3221   -8.4930 O.2       5 UNK        -0.5248 
     39 N          27.2438   -0.6644   -6.3816 N.am      6 UNK        -0.4434 
     40 CA         28.3044    0.3248   -6.1910 C.3       6 UNK         0.0363 
     41 CB         28.1969    0.9309   -4.7866 C.3       6 UNK        -0.1936 
     42 C          28.2960    1.4420   -7.2390 C.2       6 UNK         0.5081 
     43 O          29.3703    1.8623   -7.6651 O.2       6 UNK        -0.5248 
     44 N          27.0986    1.8729   -7.6586 N.am      7 UNK        -0.4718 
     45 CA         26.8949    2.8569   -8.7238 C.3       7 UNK         0.0273 
     46 CB         25.4065    3.2358   -8.7794 C.3       7 UNK        -0.1935 
     47 C          27.3802    2.3815  -10.1060 C.2       7 UNK         0.5018 
     48 O          27.8185    3.2111  -10.9033 O.2       7 UNK        -0.5186 
     49 N          27.3008    1.0686  -10.3641 N.am      8 UNK        -0.4240 
     50 CA         27.7777    0.4392  -11.5966 C.3       8 UNK         0.0235 
     51 CB         26.9335   -0.8110  -11.8959 C.3       8 UNK        -0.2000 
     52 C          29.2685    0.0818  -11.5029 C.2       8 UNK         0.4941 
     53 O          30.0097    0.3160  -12.4576 O.2       8 UNK        -0.5273 
     54 N          29.6804   -0.4742  -10.3552 N.am      9 UNK        -0.4262 
     55 CA         31.0506   -0.9092  -10.0718 C.3       9 UNK         0.0264 
     56 CB         31.0216   -1.8510   -8.8570 C.3       9 UNK        -0.1955 
     57 C          32.0426    0.2415   -9.8209 C.2       9 UNK         0.5031 
     58 O          33.2495    0.0041   -9.8851 O.2       9 UNK        -0.5390 
     59 N          31.5260    1.4391   -9.5068 N.am      10 UNK        -0.4204 
     60 CA         32.2448    2.6300   -9.0370 C.3       10 UNK         0.0237 
     61 CB         33.2342    3.1587  -10.0982 C.3       10 UNK        -0.1985 
     62 C          32.8853    2.4004   -7.6530 C.2       10 UNK         0.4970 
     63 O          34.0178    2.8247   -7.4158 O.2       10 UNK        -0.4914 
     64 N          32.1381    1.7261   -6.7681 N.am      11 UNK        -0.4285 
     65 CA         32.5328    1.4316   -5.3808 C.3       11 UNK         0.1007 
     66 C          32.2597    2.6029   -4.3908 C.2       11 UNK         0.5703 
     67 N          31.4924    3.6213   -4.7650 N.am      11 UNK        -0.7361 
     68 O          32.7689    2.6022   -3.2731 O.2       11 UNK        -0.4986 
     69 C69        31.9128    0.0926   -4.8891 C.3       12 UNK        -0.0947 
     70 S70        33.0063   -0.8111   -3.7405 S.3       12 UNK        -0.2240 
     71 C71        33.2032   -2.4149   -4.5767 C.3       12 UNK         0.0194 
     72 H72        31.6997   -0.4229    0.6844 H         1 UNK         0.0906 
     73 H73        32.0509    0.4322   -0.8193 H         1 UNK         0.0906 
     74 H74        30.8066    1.0448    0.2732 H         1 UNK         0.0906 
     75 H75        30.3764   -2.2212    0.4325 H         1 UNK         0.3140 
     76 H76        29.2164   -2.9162   -2.0503 H         1 UNK         0.1085 
     77 H77        28.4247   -4.9488   -0.8909 H         1 UNK         0.0836 
     78 H78        28.6186   -4.2032    0.6710 H         1 UNK         0.0836 
     79 H79        31.8269   -6.4541   -1.6544 H         1 UNK         0.0731 
     80 H80        30.0916   -6.6186   -1.7476 H         1 UNK         0.0731 
     81 H81        32.7958   -4.0861   -2.4655 H         1 UNK         0.1312 
     82 H82        30.9895   -2.7973   -6.1301 H         1 UNK         0.1406 
     83 H83        29.0552   -5.7705   -3.7254 H         1 UNK         0.1631 
     84 H84        28.7268   -5.4239   -6.4220 H         1 UNK         0.0717 
     85 H85        29.0133   -3.7757   -6.9308 H         1 UNK         0.0717 
     86 H86        26.7409   -4.3523   -7.7202 H         1 UNK         0.0934 
     87 H87        25.2807   -4.3764   -6.7986 H         1 UNK         0.0934 
     88 H88        25.5873   -2.5283   -8.5170 H         1 UNK         0.0739 
     89 H89        24.6783   -1.8811   -5.7830 H         1 UNK         0.3093 
     90 H90        22.3418    0.5083   -7.0703 H         1 UNK         0.0818 
     91 H91        20.6583   -0.9105   -5.9312 H         1 UNK         0.0819 
     92 H92        21.1481   -1.6586   -7.4410 H         1 UNK         0.0819 
     93 H93        21.7722   -2.2787   -5.9191 H         1 UNK         0.0819 
     94 H94        22.7166   -0.5062   -4.4386 H         1 UNK         0.3041 
     95 H95        25.3294    1.6666   -3.4295 H         1 UNK         0.0784 
     96 H96        23.2575    3.0688   -3.3617 H         1 UNK         0.0793 
     97 H97        22.3421    1.6958   -2.7548 H         1 UNK         0.0793 
     98 H98        23.6416    2.3950   -1.7880 H         1 UNK         0.0793 
     99 H99        23.9548   -0.0592   -1.7942 H         1 UNK         0.3024 
    100 H100       24.8929   -1.9323   -1.0190 H         1 UNK         0.1171 
    101 H101       23.3564   -3.1290   -2.5717 H         1 UNK         0.0786 
    102 H102       24.4373   -4.2725   -1.7922 H         1 UNK         0.0786 
    103 H103       24.7201   -3.7899   -3.4632 H         1 UNK         0.0786 
    104 H104       27.0140   -3.2507   -2.6500 H         1 UNK         0.2977 
    105 H105       26.6579   -0.8473   -5.5659 H         1 UNK         0.3127 
    106 H106       29.2548   -0.2042   -6.2696 H         1 UNK         0.0770 
    107 H107       27.2644    1.4787   -4.6593 H         1 UNK         0.0814 
    108 H108       29.0113    1.6295   -4.5915 H         1 UNK         0.0814 
    109 H109       28.2379    0.1575   -4.0205 H         1 UNK         0.0814 
    110 H110       26.2677    1.5111   -7.2031 H         1 UNK         0.2983 
    111 H111       27.4691    3.7496   -8.4663 H         1 UNK         0.0947 
    112 H112       25.2189    3.9776   -9.5570 H         1 UNK         0.0806 
    113 H113       25.0721    3.6653   -7.8347 H         1 UNK         0.0806 
    114 H114       24.7780    2.3697   -8.9925 H         1 UNK         0.0806 
    115 H115       26.9743    0.4504   -9.6325 H         1 UNK         0.3000 
    116 H116       27.6513    1.1350  -12.4292 H         1 UNK         0.0850 
    117 H117       27.2567   -1.2855  -12.8234 H         1 UNK         0.0810 
    118 H118       25.8796   -0.5575  -12.0121 H         1 UNK         0.0810 
    119 H119       27.0114   -1.5569  -11.1042 H         1 UNK         0.0810 
    120 H120       28.9826   -0.6868   -9.6427 H         1 UNK         0.3040 
    121 H121       31.4151   -1.4713  -10.9342 H         1 UNK         0.0766 
    122 H122       32.0204   -2.2192   -8.6180 H         1 UNK         0.0812 
    123 H123       30.3908   -2.7204   -9.0435 H         1 UNK         0.0812 
    124 H124       30.6375   -1.3429   -7.9726 H         1 UNK         0.0812 
    125 H125       30.5186    1.4914   -9.4061 H         1 UNK         0.3205 
    126 H126       31.4847    3.3991   -8.8913 H         1 UNK         0.0754 
    127 H127       33.6460    4.1233   -9.7989 H         1 UNK         0.0769 
    128 H128       32.7432    3.3009  -11.0609 H         1 UNK         0.0769 
    129 H129       34.0755    2.4814  -10.2469 H         1 UNK         0.0769 
    130 H130       31.1836    1.5039   -7.0306 H         1 UNK         0.2981 
    131 H131       33.6170    1.3040   -5.3895 H         1 UNK         0.0541 
    132 H132       31.0740    3.6405   -5.6808 H         1 UNK         0.3459 
    133 H133       31.3320    4.3784   -4.1198 H         1 UNK         0.3459 
    134 H134       31.7060   -0.5549   -5.7409 H         1 UNK         0.0612 
    135 H135       30.9516    0.2473   -4.3986 H         1 UNK         0.0612 
    136 H136       33.3577   -2.2623   -5.6461 H         1 UNK         0.0624 
    137 H137       34.1143   -2.8872   -4.2064 H         1 UNK         0.0624 
@<TRIPOS>BOND
     1    1    2 1    
     2    1   72 1    
     3    1   73 1    
     4    1   74 1    
     5    2    3 2    
     6    2    4 am   BACKBONE|DICT|INTERRES
     7    4    5 1    
     8    4   75 1    
     9    5    6 1    
    10    5   35 1    
    11    5   76 1    
    12    6    7 1    
    13    6   77 1    
    14    6   78 1    
    15    7    8 1    
    16    8    9 1    
    17    8   79 1    
    18    8   80 1    
    19    9   10 ar   
    20    9   14 ar   
    21   10   11 ar   
    22   10   81 1    
    23   11   12 ar   
    24   11   71 1    
    25   12   13 ar   
    26   12   82 1    
    27   13   14 ar   
    28   13   15 1    
    29   14   83 1    
    30   15   16 1    
    31   15   84 1    
    32   15   85 1    
    33   16   17 1    
    34   17   18 1    
    35   17   86 1    
    36   17   87 1    
    37   18   19 1    
    38   18   37 1    
    39   18   88 1    
    40   19   20 am   BACKBONE|DICT|INTERRES
    41   19   89 1    
    42   20   21 2    
    43   20   22 1    
    44   22   23 1    
    45   22   24 1    
    46   22   90 1    
    47   23   91 1    
    48   23   92 1    
    49   23   93 1    
    50   24   25 am   BACKBONE|DICT|INTERRES
    51   24   94 1    
    52   25   26 2    
    53   25   27 1    
    54   27   28 1    
    55   27   29 1    
    56   27   95 1    
    57   28   96 1    
    58   28   97 1    
    59   28   98 1    
    60   29   30 am   BACKBONE|DICT|INTERRES
    61   29   99 1    
    62   30   31 2    
    63   30   32 1    
    64   32   33 1    
    65   32   34 1    
    66   32  100 1    
    67   33  101 1    
    68   33  102 1    
    69   33  103 1    
    70   34   35 am   BACKBONE|DICT|INTERRES
    71   34  104 1    
    72   35   36 2    
    73   37   38 2    
    74   37   39 am   BACKBONE|DICT|INTERRES
    75   39   40 1    
    76   39  105 1    
    77   40   41 1    
    78   40   42 1    
    79   40  106 1    
    80   41  107 1    
    81   41  108 1    
    82   41  109 1    
    83   42   43 2    
    84   42   44 am   BACKBONE|DICT|INTERRES
    85   44   45 1    
    86   44  110 1    
    87   45   46 1    
    88   45   47 1    
    89   45  111 1    
    90   46  112 1    
    91   46  113 1    
    92   46  114 1    
    93   47   48 2    
    94   47   49 am   BACKBONE|DICT|INTERRES
    95   49   50 1    
    96   49  115 1    
    97   50   51 1    
    98   50   52 1    
    99   50  116 1    
   100   51  117 1    
   101   51  118 1    
   102   51  119 1    
   103   52   53 2    
   104   52   54 am   BACKBONE|DICT|INTERRES
   105   54   55 1    
   106   54  120 1    
   107   55   56 1    
   108   55   57 1    
   109   55  121 1    
   110   56  122 1    
   111   56  123 1    
   112   56  124 1    
   113   57   58 2    
   114   57   59 am   BACKBONE|DICT|INTERRES
   115   59   60 1    
   116   59  125 1    
   117   60   61 1    
   118   60   62 1    
   119   60  126 1    
   120   61  127 1    
   121   61  128 1    
   122   61  129 1    
   123   62   63 2    
   124   62   64 am   BACKBONE|DICT|INTERRES
   125   64   65 1    
   126   64  130 1    
   127   65   66 1    
   128   65   69 1    
   129   65  131 1    
   130   66   67 am   BACKBONE|DICT|INTERRES
   131   66   68 2    
   132   67  132 1    
   133   67  133 1    
   134   69   70 1    
   135   69  134 1    
   136   69  135 1    
   137   70   71 1    
   138   71  136 1    
   139   71  137 1    
@<TRIPOS>SUBSTRUCTURE
     1 UNK         1 GROUP             0       ****    0 ROOT    
