@<TRIPOS>MOLECULE
3R137
137   139    1
SMALL
USER_CHARGES


@<TRIPOS>ATOM
      1 CA         31.1630   -1.1270    2.5962 C.3       0 UNK        -0.2020 
      2 C          30.5325   -0.8695    1.2356 C.2       0 UNK         0.4855 
      3 O          30.1387    0.2612    0.9475 O.2       0 UNK        -0.5197 
      4 N          30.4426   -1.9066    0.3951 N.am      1 UNK        -0.4892 
      5 CA         29.7955   -1.8667   -0.9197 C.3       1 UNK         0.0835 
      6 C6         30.3093   -3.0094   -1.8325 C.3       12 UNK        -0.0855 
      7 S7         30.0625   -4.7011   -1.1731 S.3       12 UNK        -0.2931 
      8 C8         31.2493   -5.6773   -2.1632 C.3       12 UNK         0.0378 
      9 C9         31.1515   -5.3622   -3.6498 C.ar      12 UNK        -0.0802 
     10 C10        32.2282   -4.7678   -4.3145 C.ar      12 UNK        -0.0944 
     11 C11        32.0999   -4.3562   -5.6446 C.ar      12 UNK        -0.0787 
     12 C12        30.8978   -4.5779   -6.3214 C.ar      12 UNK        -0.0862 
     13 C13        29.8194   -5.1816   -5.6697 C.ar      12 UNK        -0.0733 
     14 C14        29.9588   -5.5927   -4.3413 C.ar      12 UNK        -0.0832 
     15 C15        28.4811   -5.3277   -6.3768 C.3       12 UNK         0.0240 
     16 S16        27.2214   -4.2335   -5.6443 S.3       12 UNK        -0.2522 
     17 C17        27.8867   -2.5666   -5.9933 C.3       12 UNK        -0.0967 
     18 CA         26.9963   -1.7909   -6.9905 C.3       5 UNK         0.0660 
     19 N          25.6228   -1.6357   -6.5102 N.am      5 UNK        -0.4015 
     20 C          24.5584   -1.4222   -7.2942 C.2       4 UNK         0.4946 
     21 O          24.6100   -1.3745   -8.5231 O.2       4 UNK        -0.5353 
     22 CA         23.2076   -1.2120   -6.5877 C.3       4 UNK         0.0277 
     23 CB         22.4931   -2.5577   -6.3835 C.3       4 UNK        -0.1981 
     24 N          23.3416   -0.5299   -5.2975 N.am      4 UNK        -0.4209 
     25 C          23.6987    0.7548   -5.1565 C.2       3 UNK         0.4942 
     26 O          23.8839    1.5209   -6.1018 O.2       3 UNK        -0.5208 
     27 CA         23.9222    1.2598   -3.7191 C.3       3 UNK         0.0250 
     28 CB         22.6099    1.8013   -3.1299 C.3       3 UNK        -0.1990 
     29 N          24.4917    0.2559   -2.8096 N.am      3 UNK        -0.4232 
     30 C          25.6787   -0.3433   -2.9780 C.2       2 UNK         0.4993 
     31 O          26.4025   -0.1645   -3.9585 O.2       2 UNK        -0.5286 
     32 CA         26.1011   -1.3554   -1.9121 C.3       2 UNK         0.0209 
     33 CB         25.5261   -2.7474   -2.2364 C.3       2 UNK        -0.1931 
     34 N          27.5622   -1.4165   -1.8510 N.am      2 UNK        -0.4546 
     35 C          28.2546   -1.8631   -0.7959 C.2       1 UNK         0.5154 
     36 O          27.7176   -2.2754    0.2377 O.2       1 UNK        -0.5181 
     37 C          27.5979   -0.4171   -7.3347 C.2       5 UNK         0.5014 
     38 O          28.2295   -0.2853   -8.3824 O.2       5 UNK        -0.5248 
     39 N          27.3333    0.5924   -6.4913 N.am      6 UNK        -0.4434 
     40 CA         27.7267    1.9968   -6.6634 C.3       6 UNK         0.0363 
     41 CB         27.2586    2.7983   -5.4377 C.3       6 UNK        -0.1936 
     42 C          27.1934    2.6603   -7.9490 C.2       6 UNK         0.5081 
     43 O          27.7505    3.6654   -8.3904 O.2       6 UNK        -0.5248 
     44 N          26.1200    2.1037   -8.5241 N.am      7 UNK        -0.4718 
     45 CA         25.5554    2.5189   -9.8074 C.3       7 UNK         0.0273 
     46 CB         24.1011    2.0268   -9.8884 C.3       7 UNK        -0.1935 
     47 C          26.3622    2.0164  -11.0211 C.2       7 UNK         0.5018 
     48 O          26.1857    2.5651  -12.1100 O.2       7 UNK        -0.5186 
     49 N          27.2000    0.9855  -10.8354 N.am      8 UNK        -0.4240 
     50 CA         27.9626    0.3251  -11.8988 C.3       8 UNK         0.0235 
     51 CB         27.5745   -1.1629  -11.9387 C.3       8 UNK        -0.2000 
     52 C          29.4803    0.4716  -11.7124 C.2       8 UNK         0.4941 
     53 O          30.1878    0.6677  -12.7017 O.2       8 UNK        -0.5273 
     54 N          29.9557    0.3574  -10.4683 N.am      9 UNK        -0.4262 
     55 CA         31.3624    0.4147  -10.0746 C.3       9 UNK         0.0264 
     56 CB         31.7459   -0.9575   -9.4850 C.3       9 UNK        -0.1955 
     57 C          31.5696    1.5285   -9.0382 C.2       9 UNK         0.5031 
     58 O          30.6062    2.1546   -8.5974 O.2       9 UNK        -0.5390 
     59 N          32.8277    1.7319   -8.6241 N.am      10 UNK        -0.4204 
     60 CA         33.2054    2.6432   -7.5338 C.3       10 UNK         0.0237 
     61 CB         34.7276    2.8605   -7.5689 C.3       10 UNK        -0.1985 
     62 C          32.7626    2.1611   -6.1349 C.2       10 UNK         0.4970 
     63 O          32.7928    2.9495   -5.1893 O.2       10 UNK        -0.4914 
     64 N          32.3736    0.8848   -6.0313 N.am      11 UNK        -0.4285 
     65 CA         31.9143    0.1554   -4.8396 C.3       11 UNK         0.1007 
     66 C          30.5564    0.6419   -4.2407 C.2       11 UNK         0.5703 
     67 N          30.3347    1.9423   -4.1255 N.am      11 UNK        -0.7361 
     68 O          29.7041   -0.1566   -3.8553 O.2       11 UNK        -0.4986 
     69 C69        31.9290   -1.3682   -5.1209 C.3       12 UNK        -0.0947 
     70 S70        33.5973   -2.0082   -5.5026 S.3       12 UNK        -0.2240 
     71 C71        33.2272   -3.5940   -6.3286 C.3       12 UNK         0.0194 
     72 H72        32.0361   -0.4895    2.7325 H         1 UNK         0.0906 
     73 H73        30.4494   -0.9020    3.3884 H         1 UNK         0.0906 
     74 H74        31.4794   -2.1638    2.7098 H         1 UNK         0.0906 
     75 H75        30.7377   -2.8254    0.6947 H         1 UNK         0.3140 
     76 H76        30.0740   -0.9207   -1.3884 H         1 UNK         0.1085 
     77 H77        31.3764   -2.8661   -2.0097 H         1 UNK         0.0836 
     78 H78        29.8375   -2.9475   -2.8156 H         1 UNK         0.0836 
     79 H79        32.2571   -5.4849   -1.7920 H         1 UNK         0.0731 
     80 H80        31.0596   -6.7397   -2.0047 H         1 UNK         0.0731 
     81 H81        33.1480   -4.5663   -3.7825 H         1 UNK         0.1312 
     82 H82        30.7860   -4.2393   -7.3425 H         1 UNK         0.1406 
     83 H83        29.1155   -6.0307   -3.8244 H         1 UNK         0.1631 
     84 H84        28.1429   -6.3618   -6.2990 H         1 UNK         0.0717 
     85 H85        28.5709   -5.1104   -7.4424 H         1 UNK         0.0717 
     86 H86        27.9750   -2.0311   -5.0464 H         1 UNK         0.0934 
     87 H87        28.9015   -2.6457   -6.3837 H         1 UNK         0.0934 
     88 H88        26.9668   -2.3669   -7.9185 H         1 UNK         0.0739 
     89 H89        25.5064   -1.6134   -5.5075 H         1 UNK         0.3093 
     90 H90        22.5886   -0.5900   -7.2382 H         1 UNK         0.0818 
     91 H91        21.5022   -2.4199   -5.9505 H         1 UNK         0.0819 
     92 H92        22.3596   -3.0750   -7.3348 H         1 UNK         0.0819 
     93 H93        23.0580   -3.2224   -5.7285 H         1 UNK         0.0819 
     94 H94        23.1886   -1.0807   -4.4654 H         1 UNK         0.3041 
     95 H95        24.6332    2.0862   -3.7733 H         1 UNK         0.0784 
     96 H96        22.1781    2.5661   -3.7774 H         1 UNK         0.0793 
     97 H97        21.8632    1.0150   -3.0120 H         1 UNK         0.0793 
     98 H98        22.7718    2.2609   -2.1547 H         1 UNK         0.0793 
     99 H99        23.9481    0.0377   -1.9863 H         1 UNK         0.3024 
    100 H100       25.7193   -1.0166   -0.9461 H         1 UNK         0.1171 
    101 H101       24.4377   -2.7216   -2.3008 H         1 UNK         0.0786 
    102 H102       25.7840   -3.4750   -1.4668 H         1 UNK         0.0786 
    103 H103       25.9025   -3.1245   -3.1873 H         1 UNK         0.0786 
    104 H104       28.0447   -1.0375   -2.6624 H         1 UNK         0.2977 
    105 H105       26.8679    0.3669   -5.6123 H         1 UNK         0.3127 
    106 H106       28.8166    2.0234   -6.6990 H         1 UNK         0.0770 
    107 H107       26.1744    2.9085   -5.4243 H         1 UNK         0.0814 
    108 H108       27.6866    3.8014   -5.4451 H         1 UNK         0.0814 
    109 H109       27.5551    2.3215   -4.5042 H         1 UNK         0.0814 
    110 H110       25.6838    1.3172   -8.0624 H         1 UNK         0.2983 
    111 H111       25.5489    3.6104   -9.8481 H         1 UNK         0.0947 
    112 H112       23.6228    2.3708  -10.8065 H         1 UNK         0.0806 
    113 H113       23.5078    2.4010   -9.0535 H         1 UNK         0.0806 
    114 H114       24.0428    0.9379   -9.8790 H         1 UNK         0.0806 
    115 H115       27.3237    0.6212   -9.8960 H         1 UNK         0.3000 
    116 H116       27.7164    0.7593  -12.8701 H         1 UNK         0.0850 
    117 H117       28.1260   -1.6910  -12.7178 H         1 UNK         0.0810 
    118 H118       26.5126   -1.2880  -12.1513 H         1 UNK         0.0810 
    119 H119       27.7857   -1.6616  -10.9916 H         1 UNK         0.0810 
    120 H120       29.3033    0.2335   -9.6944 H         1 UNK         0.3040 
    121 H121       31.9986    0.6315  -10.9351 H         1 UNK         0.0766 
    122 H122       32.8001   -1.0009   -9.2096 H         1 UNK         0.0812 
    123 H123       31.5745   -1.7556  -10.2077 H         1 UNK         0.0812 
    124 H124       31.1616   -1.1904   -8.5933 H         1 UNK         0.0812 
    125 H125       33.5740    1.1960   -9.0447 H         1 UNK         0.3205 
    126 H126       32.7185    3.6047   -7.7107 H         1 UNK         0.0754 
    127 H127       35.0403    3.5640   -6.7958 H         1 UNK         0.0769 
    128 H128       35.0484    3.2726   -8.5259 H         1 UNK         0.0769 
    129 H129       35.2727    1.9304   -7.4020 H         1 UNK         0.0769 
    130 H130       32.3904    0.3356   -6.8751 H         1 UNK         0.2981 
    131 H131       32.6454    0.3412   -4.0512 H         1 UNK         0.0541 
    132 H132       31.0565    2.5935   -4.4130 H         1 UNK         0.3459 
    133 H133       29.4734    2.2684   -3.7219 H         1 UNK         0.3459 
    134 H134       31.2508   -1.6059   -5.9423 H         1 UNK         0.0612 
    135 H135       31.5682   -1.9199   -4.2531 H         1 UNK         0.0612 
    136 H136       34.1276   -4.2094   -6.3388 H         1 UNK         0.0624 
    137 H137       32.9795   -3.3904   -7.3716 H         1 UNK         0.0624 
@<TRIPOS>BOND
     1    1    2 1    
     2    1   72 1    
     3    1   73 1    
     4    1   74 1    
     5    2    3 2    
     6    2    4 am   BACKBONE|DICT|INTERRES
     7    4    5 1    
     8    4   75 1    
     9    5    6 1    
    10    5   35 1    
    11    5   76 1    
    12    6    7 1    
    13    6   77 1    
    14    6   78 1    
    15    7    8 1    
    16    8    9 1    
    17    8   79 1    
    18    8   80 1    
    19    9   10 ar   
    20    9   14 ar   
    21   10   11 ar   
    22   10   81 1    
    23   11   12 ar   
    24   11   71 1    
    25   12   13 ar   
    26   12   82 1    
    27   13   14 ar   
    28   13   15 1    
    29   14   83 1    
    30   15   16 1    
    31   15   84 1    
    32   15   85 1    
    33   16   17 1    
    34   17   18 1    
    35   17   86 1    
    36   17   87 1    
    37   18   19 1    
    38   18   37 1    
    39   18   88 1    
    40   19   20 am   BACKBONE|DICT|INTERRES
    41   19   89 1    
    42   20   21 2    
    43   20   22 1    
    44   22   23 1    
    45   22   24 1    
    46   22   90 1    
    47   23   91 1    
    48   23   92 1    
    49   23   93 1    
    50   24   25 am   BACKBONE|DICT|INTERRES
    51   24   94 1    
    52   25   26 2    
    53   25   27 1    
    54   27   28 1    
    55   27   29 1    
    56   27   95 1    
    57   28   96 1    
    58   28   97 1    
    59   28   98 1    
    60   29   30 am   BACKBONE|DICT|INTERRES
    61   29   99 1    
    62   30   31 2    
    63   30   32 1    
    64   32   33 1    
    65   32   34 1    
    66   32  100 1    
    67   33  101 1    
    68   33  102 1    
    69   33  103 1    
    70   34   35 am   BACKBONE|DICT|INTERRES
    71   34  104 1    
    72   35   36 2    
    73   37   38 2    
    74   37   39 am   BACKBONE|DICT|INTERRES
    75   39   40 1    
    76   39  105 1    
    77   40   41 1    
    78   40   42 1    
    79   40  106 1    
    80   41  107 1    
    81   41  108 1    
    82   41  109 1    
    83   42   43 2    
    84   42   44 am   BACKBONE|DICT|INTERRES
    85   44   45 1    
    86   44  110 1    
    87   45   46 1    
    88   45   47 1    
    89   45  111 1    
    90   46  112 1    
    91   46  113 1    
    92   46  114 1    
    93   47   48 2    
    94   47   49 am   BACKBONE|DICT|INTERRES
    95   49   50 1    
    96   49  115 1    
    97   50   51 1    
    98   50   52 1    
    99   50  116 1    
   100   51  117 1    
   101   51  118 1    
   102   51  119 1    
   103   52   53 2    
   104   52   54 am   BACKBONE|DICT|INTERRES
   105   54   55 1    
   106   54  120 1    
   107   55   56 1    
   108   55   57 1    
   109   55  121 1    
   110   56  122 1    
   111   56  123 1    
   112   56  124 1    
   113   57   58 2    
   114   57   59 am   BACKBONE|DICT|INTERRES
   115   59   60 1    
   116   59  125 1    
   117   60   61 1    
   118   60   62 1    
   119   60  126 1    
   120   61  127 1    
   121   61  128 1    
   122   61  129 1    
   123   62   63 2    
   124   62   64 am   BACKBONE|DICT|INTERRES
   125   64   65 1    
   126   64  130 1    
   127   65   66 1    
   128   65   69 1    
   129   65  131 1    
   130   66   67 am   BACKBONE|DICT|INTERRES
   131   66   68 2    
   132   67  132 1    
   133   67  133 1    
   134   69   70 1    
   135   69  134 1    
   136   69  135 1    
   137   70   71 1    
   138   71  136 1    
   139   71  137 1    
@<TRIPOS>SUBSTRUCTURE
     1 UNK         1 GROUP             0       ****    0 ROOT    
