@<TRIPOS>MOLECULE
3R137
137   139    1
SMALL
USER_CHARGES


@<TRIPOS>ATOM
      1 CA         29.4540   -0.7252    2.4878 C.3       0 UNK        -0.2020 
      2 C          28.8406   -1.2227    1.1876 C.2       0 UNK         0.4855 
      3 O          28.5749   -0.4224    0.2909 O.2       0 UNK        -0.5197 
      4 N          28.6219   -2.5386    1.0730 N.am      1 UNK        -0.4892 
      5 CA         27.9768   -3.1714   -0.0793 C.3       1 UNK         0.0835 
      6 C6         28.3296   -4.6777   -0.1624 C.3       12 UNK        -0.0855 
      7 S7         28.0354   -5.4033   -1.8155 S.3       12 UNK        -0.2931 
      8 C8         29.7250   -5.6147   -2.4727 C.3       12 UNK         0.0378 
      9 C9         30.1604   -4.4219   -3.3130 C.ar      12 UNK        -0.0802 
     10 C10        30.2362   -4.5309   -4.7063 C.ar      12 UNK        -0.0944 
     11 C11        30.6501   -3.4422   -5.4793 C.ar      12 UNK        -0.0787 
     12 C12        30.9672   -2.2358   -4.8527 C.ar      12 UNK        -0.0862 
     13 C13        30.8563   -2.0990   -3.4669 C.ar      12 UNK        -0.0733 
     14 C14        30.4919   -3.2094   -2.7004 C.ar      12 UNK        -0.0832 
     15 C15        31.1070   -0.7547   -2.7900 C.3       12 UNK         0.0240 
     16 S16        30.3336    0.6589   -3.6564 S.3       12 UNK        -0.2522 
     17 C17        28.5935    0.1261   -3.8496 C.3       12 UNK        -0.0967 
     18 CA         28.1992   -0.0604   -5.3400 C.3       5 UNK         0.0660 
     19 N          27.0383   -0.9391   -5.5050 N.am      5 UNK        -0.4015 
     20 C          26.6273   -1.4387   -6.6826 C.2       4 UNK         0.4946 
     21 O          27.2081   -1.2392   -7.7491 O.2       4 UNK        -0.5353 
     22 CA         25.3286   -2.2674   -6.6928 C.3       4 UNK         0.0277 
     23 CB         25.6487   -3.7503   -6.4451 C.3       4 UNK        -0.1981 
     24 N          24.3303   -1.8173   -5.7199 N.am      4 UNK        -0.4209 
     25 C          23.8265   -0.5770   -5.6326 C.2       3 UNK         0.4942 
     26 O          24.0586    0.3125   -6.4504 O.2       3 UNK        -0.5208 
     27 CA         22.9806   -0.2449   -4.3872 C.3       3 UNK         0.0250 
     28 CB         21.4837   -0.3099   -4.7286 C.3       3 UNK        -0.1990 
     29 N          23.2484   -1.0835   -3.2076 N.am      3 UNK        -0.4232 
     30 C          24.4490   -1.2889   -2.6449 C.2       2 UNK         0.4993 
     31 O          25.4976   -0.8007   -3.0809 O.2       2 UNK        -0.5286 
     32 CA         24.5017   -2.2379   -1.4378 C.3       2 UNK         0.0209 
     33 CB         23.6949   -3.5346   -1.6602 C.3       2 UNK        -0.1931 
     34 N          25.9019   -2.5679   -1.2031 N.am      2 UNK        -0.4546 
     35 C          26.4558   -2.9275   -0.0445 C.2       1 UNK         0.5154 
     36 O          25.8281   -3.0766    1.0075 O.2       1 UNK        -0.5181 
     37 C          27.9806    1.2897   -6.0477 C.2       5 UNK         0.5014 
     38 O          28.8647    1.7431   -6.7765 O.2       5 UNK        -0.5248 
     39 N          26.7929    1.8808   -5.8536 N.am      6 UNK        -0.4434 
     40 CA         26.3740    3.1271   -6.4941 C.3       6 UNK         0.0363 
     41 CB         25.1128    3.6681   -5.8015 C.3       6 UNK        -0.1936 
     42 C          26.1406    2.9582   -8.0032 C.2       6 UNK         0.5081 
     43 O          26.5497    3.8264   -8.7729 O.2       6 UNK        -0.5248 
     44 N          25.5159    1.8399   -8.4004 N.am      7 UNK        -0.4718 
     45 CA         25.2406    1.4874   -9.7962 C.3       7 UNK         0.0273 
     46 CB         24.3323    0.2494   -9.8496 C.3       7 UNK        -0.1935 
     47 C          26.5165    1.2620  -10.6241 C.2       7 UNK         0.5018 
     48 O          26.5937    1.7463  -11.7538 O.2       7 UNK        -0.5186 
     49 N          27.4999    0.5577  -10.0453 N.am      8 UNK        -0.4240 
     50 CA         28.8185    0.3463  -10.6495 C.3       8 UNK         0.0235 
     51 CB         29.4963   -0.8571   -9.9757 C.3       8 UNK        -0.2000 
     52 C          29.7382    1.5765  -10.5554 C.2       8 UNK         0.4941 
     53 O          30.7229    1.6341  -11.2923 O.2       8 UNK        -0.5273 
     54 N          29.4269    2.5035   -9.6351 N.am      9 UNK        -0.4262 
     55 CA         30.2428    3.6437   -9.2002 C.3       9 UNK         0.0264 
     56 CB         30.3981    4.6830  -10.3308 C.3       9 UNK        -0.1955 
     57 C          31.5846    3.1724   -8.6042 C.2       9 UNK         0.5031 
     58 O          32.6395    3.6855   -8.9821 O.2       9 UNK        -0.5390 
     59 N          31.4879    2.1865   -7.6971 N.am      10 UNK        -0.4204 
     60 CA         32.5509    1.3742   -7.0955 C.3       10 UNK         0.0237 
     61 CB         33.5448    2.2335   -6.2883 C.3       10 UNK        -0.1985 
     62 C          33.2555    0.4927   -8.1448 C.2       10 UNK         0.4970 
     63 O          34.0961    0.9814   -8.9011 O.2       10 UNK        -0.4914 
     64 N          32.9016   -0.7995   -8.1654 N.am      11 UNK        -0.4285 
     65 CA         33.4612   -1.8157   -9.0756 C.3       11 UNK         0.1007 
     66 C          34.9749   -2.1396   -8.8840 C.2       11 UNK         0.5703 
     67 N          35.6049   -1.7600   -7.7782 N.am      11 UNK        -0.7361 
     68 O          35.5888   -2.7393   -9.7636 O.2       11 UNK        -0.4986 
     69 C69        32.5952   -3.1068   -9.0998 C.3       12 UNK        -0.0947 
     70 S70        32.4673   -3.9327   -7.4756 S.3       12 UNK        -0.2240 
     71 C71        30.7564   -3.5525   -6.9904 C.3       12 UNK         0.0194 
     72 H72        30.3932   -0.2107    2.2863 H         1 UNK         0.0906 
     73 H73        28.7787   -0.0229    2.9759 H         1 UNK         0.0906 
     74 H74        29.6563   -1.5402    3.1825 H         1 UNK         0.0906 
     75 H75        28.8163   -3.1450    1.8576 H         1 UNK         0.3140 
     76 H76        28.3629   -2.6797   -0.9732 H         1 UNK         0.1085 
     77 H77        29.3772   -4.8273    0.1021 H         1 UNK         0.0836 
     78 H78        27.7634   -5.2502    0.5753 H         1 UNK         0.0836 
     79 H79        30.4392   -5.7859   -1.6664 H         1 UNK         0.0731 
     80 H80        29.7412   -6.5225   -3.0778 H         1 UNK         0.0731 
     81 H81        29.9850   -5.4652   -5.1898 H         1 UNK         0.1312 
     82 H82        31.2782   -1.3903   -5.4470 H         1 UNK         0.1406 
     83 H83        30.4508   -3.1263   -1.6240 H         1 UNK         0.1631 
     84 H84        32.1825   -0.5850   -2.7273 H         1 UNK         0.0717 
     85 H85        30.7336   -0.7676   -1.7645 H         1 UNK         0.0717 
     86 H86        28.4515   -0.8083   -3.3051 H         1 UNK         0.0934 
     87 H87        27.9420    0.8463   -3.3504 H         1 UNK         0.0934 
     88 H88        29.0241   -0.5543   -5.8551 H         1 UNK         0.0739 
     89 H89        26.4684   -1.0882   -4.6760 H         1 UNK         0.3093 
     90 H90        24.8834   -2.1744   -7.6843 H         1 UNK         0.0818 
     91 H91        24.7578   -4.3714   -6.5395 H         1 UNK         0.0819 
     92 H92        26.3755   -4.1180   -7.1713 H         1 UNK         0.0819 
     93 H93        26.0708   -3.9140   -5.4524 H         1 UNK         0.0819 
     94 H94        24.0694   -2.4787   -5.0040 H         1 UNK         0.3041 
     95 H95        23.2222    0.7830   -4.1091 H         1 UNK         0.0784 
     96 H96        21.2506    0.3234   -5.5862 H         1 UNK         0.0793 
     97 H97        21.1698   -1.3244   -4.9780 H         1 UNK         0.0793 
     98 H98        20.8701    0.0382   -3.8974 H         1 UNK         0.0793 
     99 H99        22.4441   -1.5303   -2.7910 H         1 UNK         0.3024 
    100 H100       24.1072   -1.6990   -0.5733 H         1 UNK         0.1171 
    101 H101       22.6275   -3.3346   -1.7570 H         1 UNK         0.0786 
    102 H102       23.8093   -4.2197   -0.8198 H         1 UNK         0.0786 
    103 H103       24.0178   -4.0608   -2.5596 H         1 UNK         0.0786 
    104 H104       26.4969   -2.3869   -2.0014 H         1 UNK         0.2977 
    105 H105       26.1056    1.4103   -5.2824 H         1 UNK         0.3127 
    106 H106       27.1743    3.8587   -6.3619 H         1 UNK         0.0770 
    107 H107       24.2733    2.9772   -5.8862 H         1 UNK         0.0814 
    108 H108       24.8010    4.6138   -6.2470 H         1 UNK         0.0814 
    109 H109       25.2901    3.8534   -4.7420 H         1 UNK         0.0814 
    110 H110       25.1536    1.2084   -7.6888 H         1 UNK         0.2983 
    111 H111       24.7006    2.3242  -10.2448 H         1 UNK         0.0947 
    112 H112       24.0565    0.0128  -10.8781 H         1 UNK         0.0806 
    113 H113       23.4083    0.4087   -9.2933 H         1 UNK         0.0806 
    114 H114       24.8265   -0.6287   -9.4353 H         1 UNK         0.0806 
    115 H115       27.3395    0.1292   -9.1364 H         1 UNK         0.3000 
    116 H116       28.6842    0.1143  -11.7083 H         1 UNK         0.0850 
    117 H117       29.6744   -0.6752   -8.9150 H         1 UNK         0.0810 
    118 H118       28.8901   -1.7588  -10.0643 H         1 UNK         0.0810 
    119 H119       30.4608   -1.0645  -10.4402 H         1 UNK         0.0810 
    120 H120       28.5993    2.3379   -9.0770 H         1 UNK         0.3040 
    121 H121       29.6929    4.1204   -8.3870 H         1 UNK         0.0766 
    122 H122       30.9066    5.5773   -9.9688 H         1 UNK         0.0812 
    123 H123       29.4273    4.9948  -10.7162 H         1 UNK         0.0812 
    124 H124       30.9820    4.2939  -11.1653 H         1 UNK         0.0812 
    125 H125       30.5397    1.9146   -7.4338 H         1 UNK         0.3205 
    126 H126       32.0505    0.7180   -6.3825 H         1 UNK         0.0754 
    127 H127       34.2699    1.6036   -5.7718 H         1 UNK         0.0769 
    128 H128       33.0301    2.8245   -5.5306 H         1 UNK         0.0769 
    129 H129       34.1077    2.9185   -6.9229 H         1 UNK         0.0769 
    130 H130       32.2308   -1.1427   -7.4975 H         1 UNK         0.2981 
    131 H131       33.3943   -1.3848  -10.0765 H         1 UNK         0.0541 
    132 H132       36.5841   -1.9723   -7.6713 H         1 UNK         0.3459 
    133 H133       35.1108   -1.2730   -7.0492 H         1 UNK         0.3459 
    134 H134       33.0036   -3.8254   -9.8127 H         1 UNK         0.0612 
    135 H135       31.5953   -2.8810   -9.4690 H         1 UNK         0.0612 
    136 H136       30.4283   -2.6161   -7.4438 H         1 UNK         0.0624 
    137 H137       30.0911   -4.3286   -7.3716 H         1 UNK         0.0624 
@<TRIPOS>BOND
     1    1    2 1    
     2    1   72 1    
     3    1   73 1    
     4    1   74 1    
     5    2    3 2    
     6    2    4 am   BACKBONE|DICT|INTERRES
     7    4    5 1    
     8    4   75 1    
     9    5    6 1    
    10    5   35 1    
    11    5   76 1    
    12    6    7 1    
    13    6   77 1    
    14    6   78 1    
    15    7    8 1    
    16    8    9 1    
    17    8   79 1    
    18    8   80 1    
    19    9   10 ar   
    20    9   14 ar   
    21   10   11 ar   
    22   10   81 1    
    23   11   12 ar   
    24   11   71 1    
    25   12   13 ar   
    26   12   82 1    
    27   13   14 ar   
    28   13   15 1    
    29   14   83 1    
    30   15   16 1    
    31   15   84 1    
    32   15   85 1    
    33   16   17 1    
    34   17   18 1    
    35   17   86 1    
    36   17   87 1    
    37   18   19 1    
    38   18   37 1    
    39   18   88 1    
    40   19   20 am   BACKBONE|DICT|INTERRES
    41   19   89 1    
    42   20   21 2    
    43   20   22 1    
    44   22   23 1    
    45   22   24 1    
    46   22   90 1    
    47   23   91 1    
    48   23   92 1    
    49   23   93 1    
    50   24   25 am   BACKBONE|DICT|INTERRES
    51   24   94 1    
    52   25   26 2    
    53   25   27 1    
    54   27   28 1    
    55   27   29 1    
    56   27   95 1    
    57   28   96 1    
    58   28   97 1    
    59   28   98 1    
    60   29   30 am   BACKBONE|DICT|INTERRES
    61   29   99 1    
    62   30   31 2    
    63   30   32 1    
    64   32   33 1    
    65   32   34 1    
    66   32  100 1    
    67   33  101 1    
    68   33  102 1    
    69   33  103 1    
    70   34   35 am   BACKBONE|DICT|INTERRES
    71   34  104 1    
    72   35   36 2    
    73   37   38 2    
    74   37   39 am   BACKBONE|DICT|INTERRES
    75   39   40 1    
    76   39  105 1    
    77   40   41 1    
    78   40   42 1    
    79   40  106 1    
    80   41  107 1    
    81   41  108 1    
    82   41  109 1    
    83   42   43 2    
    84   42   44 am   BACKBONE|DICT|INTERRES
    85   44   45 1    
    86   44  110 1    
    87   45   46 1    
    88   45   47 1    
    89   45  111 1    
    90   46  112 1    
    91   46  113 1    
    92   46  114 1    
    93   47   48 2    
    94   47   49 am   BACKBONE|DICT|INTERRES
    95   49   50 1    
    96   49  115 1    
    97   50   51 1    
    98   50   52 1    
    99   50  116 1    
   100   51  117 1    
   101   51  118 1    
   102   51  119 1    
   103   52   53 2    
   104   52   54 am   BACKBONE|DICT|INTERRES
   105   54   55 1    
   106   54  120 1    
   107   55   56 1    
   108   55   57 1    
   109   55  121 1    
   110   56  122 1    
   111   56  123 1    
   112   56  124 1    
   113   57   58 2    
   114   57   59 am   BACKBONE|DICT|INTERRES
   115   59   60 1    
   116   59  125 1    
   117   60   61 1    
   118   60   62 1    
   119   60  126 1    
   120   61  127 1    
   121   61  128 1    
   122   61  129 1    
   123   62   63 2    
   124   62   64 am   BACKBONE|DICT|INTERRES
   125   64   65 1    
   126   64  130 1    
   127   65   66 1    
   128   65   69 1    
   129   65  131 1    
   130   66   67 am   BACKBONE|DICT|INTERRES
   131   66   68 2    
   132   67  132 1    
   133   67  133 1    
   134   69   70 1    
   135   69  134 1    
   136   69  135 1    
   137   70   71 1    
   138   71  136 1    
   139   71  137 1    
@<TRIPOS>SUBSTRUCTURE
     1 UNK         1 GROUP             0       ****    0 ROOT    
