@<TRIPOS>MOLECULE
3R137
137   139    1
SMALL
USER_CHARGES


@<TRIPOS>ATOM
      1 CA         26.3049   -5.3303   -0.0523 C.3       0 UNK        -0.2020 
      2 C          26.8491   -4.0450   -0.6553 C.2       0 UNK         0.4855 
      3 O          26.5217   -3.7202   -1.7949 O.2       0 UNK        -0.5197 
      4 N          27.6653   -3.3018    0.1055 N.am      1 UNK        -0.4892 
      5 CA         28.3467   -2.0613   -0.3072 C.3       1 UNK         0.0835 
      6 C6         29.4516   -2.3044   -1.3718 C.3       12 UNK        -0.0855 
      7 S7         30.7786   -3.3915   -0.7398 S.3       12 UNK        -0.2931 
      8 C8         30.5579   -4.9062   -1.7348 C.3       12 UNK         0.0378 
      9 C9         30.7860   -4.6724   -3.2239 C.ar      12 UNK        -0.0802 
     10 C10        31.9643   -4.0679   -3.6751 C.ar      12 UNK        -0.0944 
     11 C11        32.1484   -3.7958   -5.0330 C.ar      12 UNK        -0.0787 
     12 C12        31.1639   -4.1706   -5.9500 C.ar      12 UNK        -0.0862 
     13 C13        29.9857   -4.7851   -5.5146 C.ar      12 UNK        -0.0733 
     14 C14        29.8053   -5.0403   -4.1511 C.ar      12 UNK        -0.0832 
     15 C15        28.8856   -5.1137   -6.5172 C.3       12 UNK         0.0240 
     16 S16        27.3512   -4.1756   -6.2033 S.3       12 UNK        -0.2522 
     17 C17        27.9568   -2.4580   -6.0637 C.3       12 UNK        -0.0967 
     18 CA         27.3302   -1.4945   -7.0956 C.3       5 UNK         0.0660 
     19 N          25.8676   -1.4763   -6.9942 N.am      5 UNK        -0.4015 
     20 C          25.0123   -0.6143   -7.5633 C.2       4 UNK         0.4946 
     21 O          25.3386    0.2179   -8.4105 O.2       4 UNK        -0.5353 
     22 CA         23.5615   -0.6210   -7.0438 C.3       4 UNK         0.0277 
     23 CB         22.6400   -1.3141   -8.0597 C.3       4 UNK        -0.1981 
     24 N          23.3702   -1.2309   -5.7173 N.am      4 UNK        -0.4209 
     25 C          24.0293   -0.9186   -4.5890 C.2       3 UNK         0.4942 
     26 O          24.9169   -0.0618   -4.5327 O.2       3 UNK        -0.5208 
     27 CA         23.6713   -1.7646   -3.3511 C.3       3 UNK         0.0250 
     28 CB         23.9246   -3.2611   -3.6143 C.3       3 UNK        -0.1990 
     29 N          24.4253   -1.3638   -2.1598 N.am      3 UNK        -0.4232 
     30 C          24.2012   -0.2428   -1.4578 C.2       2 UNK         0.4993 
     31 O          23.2826    0.5395   -1.7104 O.2       2 UNK        -0.5286 
     32 CA         25.1159    0.0601   -0.2538 C.3       2 UNK         0.0209 
     33 CB         24.2942    0.1551    1.0445 C.3       2 UNK        -0.1931 
     34 N          26.1870   -0.9199   -0.0530 N.am      2 UNK        -0.4546 
     35 C          27.3611   -0.9323   -0.7000 C.2       1 UNK         0.5154 
     36 O          27.6698   -0.1002   -1.5544 O.2       1 UNK        -0.5181 
     37 C          27.9769   -0.1050   -6.9188 C.2       5 UNK         0.5014 
     38 O          28.9521    0.1887   -7.6107 O.2       5 UNK        -0.5248 
     39 N          27.4078    0.7372   -6.0422 N.am      6 UNK        -0.4434 
     40 CA         27.8344    2.1197   -5.8076 C.3       6 UNK         0.0363 
     41 CB         26.9845    2.7184   -4.6758 C.3       6 UNK        -0.1936 
     42 C          27.7848    3.0227   -7.0574 C.2       6 UNK         0.5081 
     43 O          28.5269    4.0034   -7.1094 O.2       6 UNK        -0.5248 
     44 N          26.9388    2.6756   -8.0369 N.am      7 UNK        -0.4718 
     45 CA         26.8641    3.3247   -9.3450 C.3       7 UNK         0.0273 
     46 CB         25.4027    3.7032   -9.6377 C.3       7 UNK        -0.1935 
     47 C          27.4132    2.4123  -10.4530 C.2       7 UNK         0.5018 
     48 O          28.1231    2.9005  -11.3323 O.2       7 UNK        -0.5186 
     49 N          27.0608    1.1183  -10.4114 N.am      8 UNK        -0.4240 
     50 CA         27.3785    0.1338  -11.4491 C.3       8 UNK         0.0235 
     51 CB         26.5058   -1.1174  -11.2558 C.3       8 UNK        -0.2000 
     52 C          28.8659   -0.2474  -11.5159 C.2       8 UNK         0.4941 
     53 O          29.3951   -0.3882  -12.6194 O.2       8 UNK        -0.5273 
     54 N          29.5070   -0.4126  -10.3518 N.am      9 UNK        -0.4262 
     55 CA         30.9389   -0.6935  -10.2284 C.3       9 UNK         0.0264 
     56 CB         31.1734   -1.7986   -9.1811 C.3       9 UNK        -0.1955 
     57 C          31.7008    0.5845   -9.8555 C.2       9 UNK         0.5031 
     58 O          32.7512    0.8487  -10.4415 O.2       9 UNK        -0.5390 
     59 N          31.1530    1.3483   -8.8955 N.am      10 UNK        -0.4204 
     60 CA         31.6768    2.6085   -8.3506 C.3       10 UNK         0.0237 
     61 CB         31.6017    3.7320   -9.4058 C.3       10 UNK        -0.1985 
     62 C          33.0750    2.4643   -7.7130 C.2       10 UNK         0.4970 
     63 O          33.8904    3.3856   -7.7885 O.2       10 UNK        -0.4914 
     64 N          33.3213    1.2997   -7.1023 N.am      11 UNK        -0.4285 
     65 CA         34.5430    0.9475   -6.3695 C.3       11 UNK         0.1007 
     66 C          34.7503    1.7765   -5.0692 C.2       11 UNK         0.5703 
     67 N          35.9815    1.8614   -4.5828 N.am      11 UNK        -0.7361 
     68 O          33.8137    2.3207   -4.4859 O.2       11 UNK        -0.4986 
     69 C69        34.6113   -0.5837   -6.1134 C.3       12 UNK        -0.0947 
     70 S70        33.1208   -1.2537   -5.3011 S.3       12 UNK        -0.2240 
     71 C71        33.3806   -3.0408   -5.5013 C.3       12 UNK         0.0194 
     72 H72        26.6610   -5.4877    0.9655 H         1 UNK         0.0906 
     73 H73        25.2159   -5.3025   -0.0317 H         1 UNK         0.0906 
     74 H74        26.6123   -6.1841   -0.6554 H         1 UNK         0.0906 
     75 H75        27.8916   -3.6212    1.0379 H         1 UNK         0.3140 
     76 H76        28.8447   -1.6839    0.5878 H         1 UNK         0.1085 
     77 H77        29.0226   -2.7139   -2.2878 H         1 UNK         0.0836 
     78 H78        29.9266   -1.3645   -1.6592 H         1 UNK         0.0836 
     79 H79        31.2625   -5.6624   -1.3864 H         1 UNK         0.0731 
     80 H80        29.5596   -5.3056   -1.5498 H         1 UNK         0.0731 
     81 H81        32.7199   -3.7665   -2.9623 H         1 UNK         0.1312 
     82 H82        31.2996   -3.9471   -6.9993 H         1 UNK         0.1406 
     83 H83        28.8828   -5.4936   -3.8130 H         1 UNK         0.1631 
     84 H84        28.6651   -6.1810   -6.4727 H         1 UNK         0.0717 
     85 H85        29.2157   -4.9098   -7.5372 H         1 UNK         0.0717 
     86 H86        29.0419   -2.4375   -6.1668 H         1 UNK         0.0934 
     87 H87        27.7516   -2.1218   -5.0444 H         1 UNK         0.0934 
     88 H88        27.5802   -1.8478   -8.0970 H         1 UNK         0.0739 
     89 H89        25.4837   -2.1304   -6.3290 H         1 UNK         0.3093 
     90 H90        23.2557    0.4238   -6.9610 H         1 UNK         0.0818 
     91 H91        21.5919   -1.2234   -7.7739 H         1 UNK         0.0819 
     92 H92        22.7418   -0.8656   -9.0493 H         1 UNK         0.0819 
     93 H93        22.8728   -2.3752   -8.1582 H         1 UNK         0.0819 
     94 H94        22.6633   -1.9506   -5.6658 H         1 UNK         0.3041 
     95 H95        22.6081   -1.6230   -3.1454 H         1 UNK         0.0784 
     96 H96        23.2650   -3.6527   -4.3890 H         1 UNK         0.0793 
     97 H97        24.9507   -3.4451   -3.9365 H         1 UNK         0.0793 
     98 H98        23.7476   -3.8571   -2.7186 H         1 UNK         0.0793 
     99 H99        25.2179   -1.9454   -1.9138 H         1 UNK         0.3024 
    100 H100       25.5671    1.0370   -0.4433 H         1 UNK         0.1171 
    101 H101       24.9221    0.4277    1.8931 H         1 UNK         0.0786 
    102 H102       23.8008   -0.7887    1.2797 H         1 UNK         0.0786 
    103 H103       23.5177    0.9172    0.9641 H         1 UNK         0.0786 
    104 H104       26.0117   -1.6538    0.6188 H         1 UNK         0.2977 
    105 H105       26.5941    0.4226   -5.5183 H         1 UNK         0.3127 
    106 H106       28.8742    2.0869   -5.4756 H         1 UNK         0.0770 
    107 H107       25.9267    2.7478   -4.9406 H         1 UNK         0.0814 
    108 H108       27.2952    3.7393   -4.4496 H         1 UNK         0.0814 
    109 H109       27.0822    2.1381   -3.7575 H         1 UNK         0.0814 
    110 H110       26.3737    1.8409   -7.9172 H         1 UNK         0.2983 
    111 H111       27.4581    4.2415   -9.3527 H         1 UNK         0.0947 
    112 H112       25.3108    4.1816  -10.6137 H         1 UNK         0.0806 
    113 H113       25.0215    4.4050   -8.8958 H         1 UNK         0.0806 
    114 H114       24.7489    2.8298   -9.6379 H         1 UNK         0.0806 
    115 H115       26.4392    0.8043   -9.6672 H         1 UNK         0.3000 
    116 H116       27.1147    0.5771  -12.4120 H         1 UNK         0.0850 
    117 H117       26.6930   -1.8495  -12.0426 H         1 UNK         0.0810 
    118 H118       25.4447   -0.8692  -11.2902 H         1 UNK         0.0810 
    119 H119       26.7018   -1.6067  -10.3021 H         1 UNK         0.0810 
    120 H120       29.0109   -0.2291   -9.4858 H         1 UNK         0.3040 
    121 H121       31.3365   -1.0525  -11.1802 H         1 UNK         0.0766 
    122 H122       32.2335   -2.0460   -9.1111 H         1 UNK         0.0812 
    123 H123       30.8466   -1.5048   -8.1837 H         1 UNK         0.0812 
    124 H124       30.6446   -2.7134   -9.4486 H         1 UNK         0.0812 
    125 H125       30.3089    0.9975   -8.4426 H         1 UNK         0.3205 
    126 H126       31.0083    2.8828   -7.5337 H         1 UNK         0.0754 
    127 H127       31.8625    4.6972   -8.9701 H         1 UNK         0.0769 
    128 H128       30.5936    3.8238   -9.8113 H         1 UNK         0.0769 
    129 H129       32.2839    3.5532  -10.2374 H         1 UNK         0.0769 
    130 H130       32.5834    0.6136   -7.0582 H         1 UNK         0.2981 
    131 H131       35.3763    1.2015   -7.0276 H         1 UNK         0.0541 
    132 H132       36.7582    1.4151   -5.0452 H         1 UNK         0.3459 
    133 H133       36.1374    2.3856   -3.7360 H         1 UNK         0.3459 
    134 H134       35.4884   -0.8461   -5.5192 H         1 UNK         0.0612 
    135 H135       34.7345   -1.0979   -7.0679 H         1 UNK         0.0612 
    136 H136       33.5907   -3.2669   -6.5479 H         1 UNK         0.0624 
    137 H137       34.2563   -3.3501   -4.9287 H         1 UNK         0.0624 
@<TRIPOS>BOND
     1    1    2 1    
     2    1   72 1    
     3    1   73 1    
     4    1   74 1    
     5    2    3 2    
     6    2    4 am   BACKBONE|DICT|INTERRES
     7    4    5 1    
     8    4   75 1    
     9    5    6 1    
    10    5   35 1    
    11    5   76 1    
    12    6    7 1    
    13    6   77 1    
    14    6   78 1    
    15    7    8 1    
    16    8    9 1    
    17    8   79 1    
    18    8   80 1    
    19    9   10 ar   
    20    9   14 ar   
    21   10   11 ar   
    22   10   81 1    
    23   11   12 ar   
    24   11   71 1    
    25   12   13 ar   
    26   12   82 1    
    27   13   14 ar   
    28   13   15 1    
    29   14   83 1    
    30   15   16 1    
    31   15   84 1    
    32   15   85 1    
    33   16   17 1    
    34   17   18 1    
    35   17   86 1    
    36   17   87 1    
    37   18   19 1    
    38   18   37 1    
    39   18   88 1    
    40   19   20 am   BACKBONE|DICT|INTERRES
    41   19   89 1    
    42   20   21 2    
    43   20   22 1    
    44   22   23 1    
    45   22   24 1    
    46   22   90 1    
    47   23   91 1    
    48   23   92 1    
    49   23   93 1    
    50   24   25 am   BACKBONE|DICT|INTERRES
    51   24   94 1    
    52   25   26 2    
    53   25   27 1    
    54   27   28 1    
    55   27   29 1    
    56   27   95 1    
    57   28   96 1    
    58   28   97 1    
    59   28   98 1    
    60   29   30 am   BACKBONE|DICT|INTERRES
    61   29   99 1    
    62   30   31 2    
    63   30   32 1    
    64   32   33 1    
    65   32   34 1    
    66   32  100 1    
    67   33  101 1    
    68   33  102 1    
    69   33  103 1    
    70   34   35 am   BACKBONE|DICT|INTERRES
    71   34  104 1    
    72   35   36 2    
    73   37   38 2    
    74   37   39 am   BACKBONE|DICT|INTERRES
    75   39   40 1    
    76   39  105 1    
    77   40   41 1    
    78   40   42 1    
    79   40  106 1    
    80   41  107 1    
    81   41  108 1    
    82   41  109 1    
    83   42   43 2    
    84   42   44 am   BACKBONE|DICT|INTERRES
    85   44   45 1    
    86   44  110 1    
    87   45   46 1    
    88   45   47 1    
    89   45  111 1    
    90   46  112 1    
    91   46  113 1    
    92   46  114 1    
    93   47   48 2    
    94   47   49 am   BACKBONE|DICT|INTERRES
    95   49   50 1    
    96   49  115 1    
    97   50   51 1    
    98   50   52 1    
    99   50  116 1    
   100   51  117 1    
   101   51  118 1    
   102   51  119 1    
   103   52   53 2    
   104   52   54 am   BACKBONE|DICT|INTERRES
   105   54   55 1    
   106   54  120 1    
   107   55   56 1    
   108   55   57 1    
   109   55  121 1    
   110   56  122 1    
   111   56  123 1    
   112   56  124 1    
   113   57   58 2    
   114   57   59 am   BACKBONE|DICT|INTERRES
   115   59   60 1    
   116   59  125 1    
   117   60   61 1    
   118   60   62 1    
   119   60  126 1    
   120   61  127 1    
   121   61  128 1    
   122   61  129 1    
   123   62   63 2    
   124   62   64 am   BACKBONE|DICT|INTERRES
   125   64   65 1    
   126   64  130 1    
   127   65   66 1    
   128   65   69 1    
   129   65  131 1    
   130   66   67 am   BACKBONE|DICT|INTERRES
   131   66   68 2    
   132   67  132 1    
   133   67  133 1    
   134   69   70 1    
   135   69  134 1    
   136   69  135 1    
   137   70   71 1    
   138   71  136 1    
   139   71  137 1    
@<TRIPOS>SUBSTRUCTURE
     1 UNK         1 GROUP             0       ****    0 ROOT    
