@<TRIPOS>MOLECULE
3R137
137   139    1
SMALL
USER_CHARGES


@<TRIPOS>ATOM
      1 CA         25.8782   -4.6101    0.5844 C.3       0 UNK        -0.2020 
      2 C          25.9244   -3.8816   -0.7493 C.2       0 UNK         0.4855 
      3 O          25.3682   -2.7899   -0.8686 O.2       0 UNK        -0.5197 
      4 N          26.5682   -4.4859   -1.7588 N.am      1 UNK        -0.4892 
      5 CA         26.8046   -3.9249   -3.0996 C.3       1 UNK         0.0835 
      6 C6         27.6599   -4.8625   -3.9926 C.3       12 UNK        -0.0855 
      7 S7         29.1062   -5.5906   -3.1401 S.3       12 UNK        -0.2931 
      8 C8         30.5209   -4.7850   -3.9709 C.3       12 UNK         0.0378 
      9 C9         30.8826   -3.3775   -3.4889 C.ar      12 UNK        -0.0802 
     10 C10        31.9795   -2.7451   -4.0828 C.ar      12 UNK        -0.0944 
     11 C11        32.3801   -1.4682   -3.6802 C.ar      12 UNK        -0.0787 
     12 C12        31.6536   -0.8011   -2.6909 C.ar      12 UNK        -0.0862 
     13 C13        30.5455   -1.4109   -2.0941 C.ar      12 UNK        -0.0733 
     14 C14        30.1847   -2.7058   -2.4757 C.ar      12 UNK        -0.0832 
     15 C15        29.7300   -0.6715   -1.0405 C.3       12 UNK         0.0240 
     16 S16        28.0879   -0.1710   -1.6639 S.3       12 UNK        -0.2522 
     17 C17        28.5337    0.8262   -3.1247 C.3       12 UNK        -0.0967 
     18 CA         28.1970    0.0631   -4.4377 C.3       5 UNK         0.0660 
     19 N          26.7561    0.0337   -4.7178 N.am      5 UNK        -0.4015 
     20 C          25.9969    1.0604   -5.1373 C.2       4 UNK         0.4946 
     21 O          26.4287    2.1900   -5.3752 O.2       4 UNK        -0.5353 
     22 CA         24.4988    0.7879   -5.3156 C.3       4 UNK         0.0277 
     23 CB         24.2308    0.0665   -6.6462 C.3       4 UNK        -0.1981 
     24 N          23.9883   -0.0365   -4.2245 N.am      4 UNK        -0.4209 
     25 C          23.2905    0.3993   -3.1675 C.2       3 UNK         0.4942 
     26 O          22.9951    1.5821   -2.9895 O.2       3 UNK        -0.5208 
     27 CA         22.8564   -0.6537   -2.1217 C.3       3 UNK         0.0250 
     28 CB         21.4186   -0.4194   -1.6113 C.3       3 UNK        -0.1990 
     29 N          23.0492   -2.0437   -2.5611 N.am      3 UNK        -0.4232 
     30 C          22.4532   -2.6720   -3.5904 C.2       2 UNK         0.4993 
     31 O          21.5128   -2.1959   -4.2272 O.2       2 UNK        -0.5286 
     32 CA         23.0390   -4.0359   -4.0198 C.3       2 UNK         0.0209 
     33 CB         22.9401   -4.2538   -5.5455 C.3       2 UNK        -0.1931 
     34 N          24.4191   -4.2649   -3.5648 N.am      2 UNK        -0.4546 
     35 C          25.5089   -3.5257   -3.8333 C.2       1 UNK         0.5154 
     36 O          25.5089   -2.5302   -4.5603 O.2       1 UNK        -0.5181 
     37 C          28.9676    0.5560   -5.6775 C.2       5 UNK         0.5014 
     38 O          28.9864   -0.1555   -6.6834 O.2       5 UNK        -0.5248 
     39 N          29.5283    1.7722   -5.6185 N.am      6 UNK        -0.4434 
     40 CA         30.2493    2.4392   -6.7049 C.3       6 UNK         0.0363 
     41 CB         30.7311    3.8141   -6.2182 C.3       6 UNK        -0.1936 
     42 C          29.4512    2.5821   -8.0104 C.2       6 UNK         0.5081 
     43 O          30.0559    2.5420   -9.0806 O.2       6 UNK        -0.5248 
     44 N          28.1199    2.7035   -7.9141 N.am      7 UNK        -0.4718 
     45 CA         27.2244    2.7757   -9.0713 C.3       7 UNK         0.0273 
     46 CB         25.8749    3.3680   -8.6332 C.3       7 UNK        -0.1935 
     47 C          27.0323    1.4283   -9.7961 C.2       7 UNK         0.5018 
     48 O          26.5766    1.4381  -10.9403 O.2       7 UNK        -0.5186 
     49 N          27.3722    0.3084   -9.1407 N.am      8 UNK        -0.4240 
     50 CA         27.2917   -1.0418   -9.7038 C.3       8 UNK         0.0235 
     51 CB         26.5119   -1.9577   -8.7448 C.3       8 UNK        -0.2000 
     52 C          28.6857   -1.6187   -9.9831 C.2       8 UNK         0.4941 
     53 O          28.9157   -2.1429  -11.0731 O.2       8 UNK        -0.5273 
     54 N          29.5869   -1.5262   -8.9968 N.am      9 UNK        -0.4262 
     55 CA         30.9262   -2.1174   -9.0320 C.3       9 UNK         0.0264 
     56 CB         31.3816   -2.3830   -7.5873 C.3       9 UNK        -0.1955 
     57 C          31.9676   -1.2691   -9.7828 C.2       9 UNK         0.5031 
     58 O          33.0537   -1.7808  -10.0570 O.2       9 UNK        -0.5390 
     59 N          31.6447    0.0007  -10.0787 N.am      10 UNK        -0.4204 
     60 CA         32.4928    1.0043  -10.7426 C.3       10 UNK         0.0237 
     61 CB         32.8558    0.5692  -12.1792 C.3       10 UNK        -0.1985 
     62 C          33.7293    1.4287   -9.9205 C.2       10 UNK         0.4970 
     63 O          34.6660    1.9973  -10.4834 O.2       10 UNK        -0.4914 
     64 N          33.7069    1.1693   -8.6071 N.am      11 UNK        -0.4285 
     65 CA         34.7591    1.5202   -7.6409 C.3       11 UNK         0.1007 
     66 C          34.7866    3.0149   -7.2024 C.2       11 UNK         0.5703 
     67 N          33.8938    3.8702   -7.6858 N.am      11 UNK        -0.7361 
     68 O          35.6512    3.4125   -6.4248 O.2       11 UNK        -0.4986 
     69 C69        34.7716    0.5369   -6.4388 C.3       12 UNK        -0.0947 
     70 S70        33.1703    0.3830   -5.5781 S.3       12 UNK        -0.2240 
     71 C71        33.6130   -0.8256   -4.2976 C.3       12 UNK         0.0194 
     72 H72        24.8443   -4.7820    0.8823 H         1 UNK         0.0906 
     73 H73        26.3844   -5.5742    0.5413 H         1 UNK         0.0906 
     74 H74        26.3591   -4.0084    1.3550 H         1 UNK         0.0906 
     75 H75        27.0129   -5.3795   -1.5953 H         1 UNK         0.3140 
     76 H76        27.3543   -2.9941   -2.9550 H         1 UNK         0.1085 
     77 H77        27.0558   -5.6973   -4.3544 H         1 UNK         0.0836 
     78 H78        27.9920   -4.3276   -4.8849 H         1 UNK         0.0836 
     79 H79        31.3922   -5.4247   -3.8226 H         1 UNK         0.0731 
     80 H80        30.3409   -4.7649   -5.0468 H         1 UNK         0.0731 
     81 H81        32.5370   -3.2584   -4.8546 H         1 UNK         0.1312 
     82 H82        31.9533    0.1934   -2.3894 H         1 UNK         0.1406 
     83 H83        29.3514   -3.1735   -1.9746 H         1 UNK         0.1631 
     84 H84        30.2624    0.2135   -0.6886 H         1 UNK         0.0717 
     85 H85        29.5962   -1.3140   -0.1690 H         1 UNK         0.0717 
     86 H86        28.0018    1.7778   -3.0724 H         1 UNK         0.0934 
     87 H87        29.5942    1.0719   -3.0584 H         1 UNK         0.0934 
     88 H88        28.5068   -0.9762   -4.3161 H         1 UNK         0.0739 
     89 H89        26.3139   -0.8764   -4.6182 H         1 UNK         0.3093 
     90 H90        23.9829    1.7503   -5.3372 H         1 UNK         0.0818 
     91 H91        23.1610   -0.0110   -6.8408 H         1 UNK         0.0819 
     92 H92        24.6766    0.5948   -7.4887 H         1 UNK         0.0819 
     93 H93        24.6378   -0.9445   -6.6412 H         1 UNK         0.0819 
     94 H94        24.2196   -1.0229   -4.2692 H         1 UNK         0.3041 
     95 H95        23.5304   -0.5203   -1.2740 H         1 UNK         0.0784 
     96 H96        21.3280    0.5571   -1.1340 H         1 UNK         0.0793 
     97 H97        20.6889   -0.4507   -2.4207 H         1 UNK         0.0793 
     98 H98        21.1334   -1.1672   -0.8715 H         1 UNK         0.0793 
     99 H99        23.8190   -2.5180   -2.0955 H         1 UNK         0.3024 
    100 H100       22.4206   -4.7923   -3.5335 H         1 UNK         0.1171 
    101 H101       23.3517   -5.2203   -5.8360 H         1 UNK         0.0786 
    102 H102       23.4738   -3.4815   -6.1007 H         1 UNK         0.0786 
    103 H103       21.9020   -4.2340   -5.8795 H         1 UNK         0.0786 
    104 H104       24.5426   -5.0383   -2.9251 H         1 UNK         0.2977 
    105 H105       29.4080    2.3095   -4.7730 H         1 UNK         0.3127 
    106 H106       31.1230    1.8326   -6.9416 H         1 UNK         0.0770 
    107 H107       29.9043    4.4279   -5.8587 H         1 UNK         0.0814 
    108 H108       31.2163    4.3689   -7.0217 H         1 UNK         0.0814 
    109 H109       31.4571    3.7157   -5.4108 H         1 UNK         0.0814 
    110 H110       27.6871    2.6933   -6.9952 H         1 UNK         0.2983 
    111 H111       27.6658    3.4607   -9.7990 H         1 UNK         0.0947 
    112 H112       25.1830    3.4343   -9.4739 H         1 UNK         0.0806 
    113 H113       25.9976    4.3762   -8.2371 H         1 UNK         0.0806 
    114 H114       25.3960    2.7661   -7.8626 H         1 UNK         0.0806 
    115 H115       27.7826    0.3915   -8.2168 H         1 UNK         0.3000 
    116 H116       26.7546   -1.0293  -10.6547 H         1 UNK         0.0850 
    117 H117       26.5480   -2.9967   -9.0757 H         1 UNK         0.0810 
    118 H118       25.4610   -1.6741   -8.7089 H         1 UNK         0.0810 
    119 H119       26.9084   -1.9235   -7.7289 H         1 UNK         0.0810 
    120 H120       29.3212   -1.0719   -8.1220 H         1 UNK         0.3040 
    121 H121       30.8695   -3.0791   -9.5466 H         1 UNK         0.0766 
    122 H122       32.3829   -2.8151   -7.5591 H         1 UNK         0.0812 
    123 H123       30.7129   -3.0818   -7.0847 H         1 UNK         0.0812 
    124 H124       31.4038   -1.4669   -6.9981 H         1 UNK         0.0812 
    125 H125       30.7331    0.3344   -9.7926 H         1 UNK         0.3205 
    126 H126       31.8803    1.9018  -10.8308 H         1 UNK         0.0754 
    127 H127       33.3319    1.3835  -12.7267 H         1 UNK         0.0769 
    128 H128       31.9681    0.2795  -12.7418 H         1 UNK         0.0769 
    129 H129       33.5484   -0.2729  -12.1873 H         1 UNK         0.0769 
    130 H130       32.9010    0.7044   -8.2192 H         1 UNK         0.2981 
    131 H131       35.7121    1.3769   -8.1535 H         1 UNK         0.0541 
    132 H132       33.1995    3.5651   -8.3471 H         1 UNK         0.3459 
    133 H133       33.9368    4.8360   -7.4028 H         1 UNK         0.3459 
    134 H134       35.5402    0.8120   -5.7142 H         1 UNK         0.0612 
    135 H135       35.0485   -0.4554   -6.7984 H         1 UNK         0.0612 
    136 H136       34.2558   -1.5938   -4.7305 H         1 UNK         0.0624 
    137 H137       34.2028   -0.3301   -3.5251 H         1 UNK         0.0624 
@<TRIPOS>BOND
     1    1    2 1    
     2    1   72 1    
     3    1   73 1    
     4    1   74 1    
     5    2    3 2    
     6    2    4 am   BACKBONE|DICT|INTERRES
     7    4    5 1    
     8    4   75 1    
     9    5    6 1    
    10    5   35 1    
    11    5   76 1    
    12    6    7 1    
    13    6   77 1    
    14    6   78 1    
    15    7    8 1    
    16    8    9 1    
    17    8   79 1    
    18    8   80 1    
    19    9   10 ar   
    20    9   14 ar   
    21   10   11 ar   
    22   10   81 1    
    23   11   12 ar   
    24   11   71 1    
    25   12   13 ar   
    26   12   82 1    
    27   13   14 ar   
    28   13   15 1    
    29   14   83 1    
    30   15   16 1    
    31   15   84 1    
    32   15   85 1    
    33   16   17 1    
    34   17   18 1    
    35   17   86 1    
    36   17   87 1    
    37   18   19 1    
    38   18   37 1    
    39   18   88 1    
    40   19   20 am   BACKBONE|DICT|INTERRES
    41   19   89 1    
    42   20   21 2    
    43   20   22 1    
    44   22   23 1    
    45   22   24 1    
    46   22   90 1    
    47   23   91 1    
    48   23   92 1    
    49   23   93 1    
    50   24   25 am   BACKBONE|DICT|INTERRES
    51   24   94 1    
    52   25   26 2    
    53   25   27 1    
    54   27   28 1    
    55   27   29 1    
    56   27   95 1    
    57   28   96 1    
    58   28   97 1    
    59   28   98 1    
    60   29   30 am   BACKBONE|DICT|INTERRES
    61   29   99 1    
    62   30   31 2    
    63   30   32 1    
    64   32   33 1    
    65   32   34 1    
    66   32  100 1    
    67   33  101 1    
    68   33  102 1    
    69   33  103 1    
    70   34   35 am   BACKBONE|DICT|INTERRES
    71   34  104 1    
    72   35   36 2    
    73   37   38 2    
    74   37   39 am   BACKBONE|DICT|INTERRES
    75   39   40 1    
    76   39  105 1    
    77   40   41 1    
    78   40   42 1    
    79   40  106 1    
    80   41  107 1    
    81   41  108 1    
    82   41  109 1    
    83   42   43 2    
    84   42   44 am   BACKBONE|DICT|INTERRES
    85   44   45 1    
    86   44  110 1    
    87   45   46 1    
    88   45   47 1    
    89   45  111 1    
    90   46  112 1    
    91   46  113 1    
    92   46  114 1    
    93   47   48 2    
    94   47   49 am   BACKBONE|DICT|INTERRES
    95   49   50 1    
    96   49  115 1    
    97   50   51 1    
    98   50   52 1    
    99   50  116 1    
   100   51  117 1    
   101   51  118 1    
   102   51  119 1    
   103   52   53 2    
   104   52   54 am   BACKBONE|DICT|INTERRES
   105   54   55 1    
   106   54  120 1    
   107   55   56 1    
   108   55   57 1    
   109   55  121 1    
   110   56  122 1    
   111   56  123 1    
   112   56  124 1    
   113   57   58 2    
   114   57   59 am   BACKBONE|DICT|INTERRES
   115   59   60 1    
   116   59  125 1    
   117   60   61 1    
   118   60   62 1    
   119   60  126 1    
   120   61  127 1    
   121   61  128 1    
   122   61  129 1    
   123   62   63 2    
   124   62   64 am   BACKBONE|DICT|INTERRES
   125   64   65 1    
   126   64  130 1    
   127   65   66 1    
   128   65   69 1    
   129   65  131 1    
   130   66   67 am   BACKBONE|DICT|INTERRES
   131   66   68 2    
   132   67  132 1    
   133   67  133 1    
   134   69   70 1    
   135   69  134 1    
   136   69  135 1    
   137   70   71 1    
   138   71  136 1    
   139   71  137 1    
@<TRIPOS>SUBSTRUCTURE
     1 UNK         1 GROUP             0       ****    0 ROOT    
