@<TRIPOS>MOLECULE
3R137
137   139    1
SMALL
USER_CHARGES


@<TRIPOS>ATOM
      1 CA         26.1665   -4.9776    1.4761 C.3       0 UNK        -0.2020 
      2 C          26.2882   -4.5423    0.0236 C.2       0 UNK         0.4855 
      3 O          25.3446   -4.7199   -0.7466 O.2       0 UNK        -0.5197 
      4 N          27.4371   -3.9582   -0.3481 N.am      1 UNK        -0.4892 
      5 CA         27.7980   -3.5010   -1.7023 C.3       1 UNK         0.0835 
      6 C6         27.9108   -4.6649   -2.7288 C.3       12 UNK        -0.0855 
      7 S7         29.4115   -5.6647   -2.4354 S.3       12 UNK        -0.2931 
      8 C8         30.4215   -5.2870   -3.9083 C.3       12 UNK         0.0378 
      9 C9         31.1685   -3.9614   -3.7995 C.ar      12 UNK        -0.0802 
     10 C10        32.5510   -3.9424   -3.5818 C.ar      12 UNK        -0.0944 
     11 C11        33.2511   -2.7304   -3.5579 C.ar      12 UNK        -0.0787 
     12 C12        32.5569   -1.5295   -3.7195 C.ar      12 UNK        -0.0862 
     13 C13        31.1848   -1.5373   -3.9642 C.ar      12 UNK        -0.0733 
     14 C14        30.4962   -2.7516   -3.9938 C.ar      12 UNK        -0.0832 
     15 C15        30.4562   -0.2469   -4.2852 C.3       12 UNK         0.0240 
     16 S16        29.4078    0.2970   -2.8999 S.3       12 UNK        -0.2522 
     17 C17        28.4045    1.6525   -3.6098 C.3       12 UNK        -0.0967 
     18 CA         27.9916    1.4931   -5.0951 C.3       5 UNK         0.0660 
     19 N          27.3181    0.2187   -5.3826 N.am      5 UNK        -0.4015 
     20 C          27.0823   -0.2459   -6.6192 C.2       4 UNK         0.4946 
     21 O          27.4292    0.3416   -7.6421 O.2       4 UNK        -0.5353 
     22 CA         26.3191   -1.5690   -6.7563 C.3       4 UNK         0.0277 
     23 CB         27.2904   -2.7600   -6.7565 C.3       4 UNK        -0.1981 
     24 N          25.3256   -1.7268   -5.6952 N.am      4 UNK        -0.4209 
     25 C          24.1047   -1.1740   -5.7220 C.2       3 UNK         0.4942 
     26 O          23.6590   -0.5453   -6.6823 O.2       3 UNK        -0.5208 
     27 CA         23.2421   -1.3217   -4.4547 C.3       3 UNK         0.0250 
     28 CB         22.4381   -2.6307   -4.4994 C.3       3 UNK        -0.1990 
     29 N          24.0140   -1.2659   -3.2092 N.am      3 UNK        -0.4232 
     30 C          24.7140   -0.2000   -2.7970 C.2       2 UNK         0.4993 
     31 O          24.7740    0.8623   -3.4164 O.2       2 UNK        -0.5286 
     32 CA         25.5292   -0.3550   -1.5022 C.3       2 UNK         0.0209 
     33 CB         24.6444   -0.0700   -0.2782 C.3       2 UNK        -0.1931 
     34 N          26.2120   -1.6433   -1.3175 N.am      2 UNK        -0.4546 
     35 C          26.9509   -2.3125   -2.2173 C.2       1 UNK         0.5154 
     36 O          27.0222   -1.9929   -3.4053 O.2       1 UNK        -0.5181 
     37 C          27.1607    2.7003   -5.5656 C.2       5 UNK         0.5014 
     38 O          27.7299    3.6307   -6.1362 O.2       5 UNK        -0.5248 
     39 N          25.8334    2.6425   -5.3804 N.am      6 UNK        -0.4434 
     40 CA         24.8736    3.6307   -5.8845 C.3       6 UNK         0.0363 
     41 CB         23.4711    3.2851   -5.3597 C.3       6 UNK        -0.1936 
     42 C          24.8573    3.7451   -7.4212 C.2       6 UNK         0.5081 
     43 O          24.6130    4.8324   -7.9444 O.2       6 UNK        -0.5248 
     44 N          25.1335    2.6314   -8.1116 N.am      7 UNK        -0.4718 
     45 CA         25.2554    2.5564   -9.5690 C.3       7 UNK         0.0273 
     46 CB         24.8038    1.1561  -10.0183 C.3       7 UNK        -0.1935 
     47 C          26.6839    2.8431  -10.0727 C.2       7 UNK         0.5018 
     48 O          26.8653    2.9821  -11.2829 O.2       7 UNK        -0.5186 
     49 N          27.6657    2.8883   -9.1565 N.am      8 UNK        -0.4240 
     50 CA         29.1168    2.9269   -9.3899 C.3       8 UNK         0.0235 
     51 CB         29.5407    4.2799   -9.9990 C.3       8 UNK        -0.2000 
     52 C          29.6134    1.7114  -10.2034 C.2       8 UNK         0.4941 
     53 O          30.4681    1.8571  -11.0793 O.2       8 UNK        -0.5273 
     54 N          29.0389    0.5363   -9.9160 N.am      9 UNK        -0.4262 
     55 CA         29.1891   -0.6897  -10.7014 C.3       9 UNK         0.0264 
     56 CB         27.8229   -1.3966  -10.7553 C.3       9 UNK        -0.1955 
     57 C          30.2728   -1.6463  -10.1744 C.2       9 UNK         0.5031 
     58 O          30.5260   -2.6598  -10.8288 O.2       9 UNK        -0.5390 
     59 N          30.8853   -1.3457   -9.0225 N.am      10 UNK        -0.4204 
     60 CA         31.9091   -2.1762   -8.3889 C.3       10 UNK         0.0237 
     61 CB         31.2423   -3.1453   -7.3992 C.3       10 UNK        -0.1985 
     62 C          32.9499   -1.2916   -7.6937 C.2       10 UNK         0.4970 
     63 O          32.5912   -0.2355   -7.1665 O.2       10 UNK        -0.4914 
     64 N          34.2075   -1.7559   -7.7133 N.am      11 UNK        -0.4285 
     65 CA         35.4134   -1.0816   -7.1990 C.3       11 UNK         0.1007 
     66 C          35.6336    0.3369   -7.8146 C.2       11 UNK         0.5703 
     67 N          36.2366    1.2769   -7.0975 N.am      11 UNK        -0.7361 
     68 O          35.3148    0.5758   -8.9784 O.2       11 UNK        -0.4986 
     69 C69        35.5322   -1.1474   -5.6471 C.3       12 UNK        -0.0947 
     70 S70        35.5986   -2.8607   -5.0132 S.3       12 UNK        -0.2240 
     71 C71        34.7628   -2.7187   -3.3999 C.3       12 UNK         0.0194 
     72 H72        27.0662   -4.7516    2.0482 H         1 UNK         0.0906 
     73 H73        25.3263   -4.4715    1.9509 H         1 UNK         0.0906 
     74 H74        25.9918   -6.0518    1.5310 H         1 UNK         0.0906 
     75 H75        28.1662   -3.8407    0.3431 H         1 UNK         0.3140 
     76 H76        28.7930   -3.0636   -1.6009 H         1 UNK         0.1085 
     77 H77        27.9227   -4.3115   -3.7593 H         1 UNK         0.0836 
     78 H78        27.0406   -5.3196   -2.6734 H         1 UNK         0.0836 
     79 H79        29.7958   -5.2882   -4.8022 H         1 UNK         0.0731 
     80 H80        31.1334   -6.1020   -4.0475 H         1 UNK         0.0731 
     81 H81        33.0901   -4.8724   -3.4628 H         1 UNK         0.1312 
     82 H82        33.0877   -0.5886   -3.6993 H         1 UNK         0.1406 
     83 H83        29.4385   -2.7443   -4.2019 H         1 UNK         0.1631 
     84 H84        29.8666   -0.4343   -5.1803 H         1 UNK         0.0717 
     85 H85        31.1593    0.5475   -4.5407 H         1 UNK         0.0717 
     86 H86        27.5193    1.7711   -2.9837 H         1 UNK         0.0934 
     87 H87        28.9768    2.5740   -3.4843 H         1 UNK         0.0934 
     88 H88        28.9008    1.5212   -5.6986 H         1 UNK         0.0739 
     89 H89        27.0619   -0.3566   -4.5867 H         1 UNK         0.3093 
     90 H90        25.8080   -1.5558   -7.7215 H         1 UNK         0.0818 
     91 H91        27.8252   -2.8479   -5.8129 H         1 UNK         0.0819 
     92 H92        26.7642   -3.6985   -6.9306 H         1 UNK         0.0819 
     93 H93        28.0378   -2.6566   -7.5442 H         1 UNK         0.0819 
     94 H94        25.6521   -2.1506   -4.8327 H         1 UNK         0.3041 
     95 H95        22.5371   -0.4876   -4.4425 H         1 UNK         0.0784 
     96 H96        21.8382   -2.6890   -5.4088 H         1 UNK         0.0793 
     97 H97        23.0887   -3.5061   -4.4810 H         1 UNK         0.0793 
     98 H98        21.7515   -2.7040   -3.6557 H         1 UNK         0.0793 
     99 H99        24.0427   -2.1033   -2.6447 H         1 UNK         0.3024 
    100 H100       26.3111    0.4049   -1.5310 H         1 UNK         0.1171 
    101 H101       25.2343   -0.0250    0.6375 H         1 UNK         0.0786 
    102 H102       24.1343    0.8895   -0.3781 H         1 UNK         0.0786 
    103 H103       23.8782   -0.8351   -0.1471 H         1 UNK         0.0786 
    104 H104       26.2148   -2.0106   -0.3771 H         1 UNK         0.2977 
    105 H105       25.4483    1.8759   -4.8300 H         1 UNK         0.3127 
    106 H106       25.1607    4.6057   -5.4854 H         1 UNK         0.0770 
    107 H107       23.1476    2.2990   -5.6966 H         1 UNK         0.0814 
    108 H108       22.7328    4.0093   -5.7067 H         1 UNK         0.0814 
    109 H109       23.4433    3.2905   -4.2698 H         1 UNK         0.0814 
    110 H110       25.3195    1.7798   -7.5993 H         1 UNK         0.2983 
    111 H111       24.5935    3.2936  -10.0290 H         1 UNK         0.0947 
    112 H112       24.8505    1.0569  -11.1036 H         1 UNK         0.0806 
    113 H113       23.7747    0.9564   -9.7190 H         1 UNK         0.0806 
    114 H114       25.4323    0.3737   -9.5915 H         1 UNK         0.0806 
    115 H115       27.3943    2.7699   -8.1885 H         1 UNK         0.3000 
    116 H116       29.5839    2.8455   -8.4072 H         1 UNK         0.0850 
    117 H117       30.6269    4.3588  -10.0573 H         1 UNK         0.0810 
    118 H118       29.1878    5.1141   -9.3927 H         1 UNK         0.0810 
    119 H119       29.1510    4.4098  -11.0091 H         1 UNK         0.0810 
    120 H120       28.3760    0.4998   -9.1401 H         1 UNK         0.3040 
    121 H121       29.4683   -0.4304  -11.7249 H         1 UNK         0.0766 
    122 H122       27.0675   -0.7579  -11.2131 H         1 UNK         0.0812 
    123 H123       27.4710   -1.6725   -9.7614 H         1 UNK         0.0812 
    124 H124       27.8733   -2.3099  -11.3496 H         1 UNK         0.0812 
    125 H125       30.6862   -0.4670   -8.5628 H         1 UNK         0.3205 
    126 H126       32.4303   -2.7590   -9.1518 H         1 UNK         0.0754 
    127 H127       31.9832   -3.6866   -6.8088 H         1 UNK         0.0769 
    128 H128       30.6345   -3.8853   -7.9199 H         1 UNK         0.0769 
    129 H129       30.5927   -2.6117   -6.7073 H         1 UNK         0.0769 
    130 H130       34.3833   -2.6341   -8.1782 H         1 UNK         0.2981 
    131 H131       36.2455   -1.6623   -7.5983 H         1 UNK         0.0541 
    132 H132       36.5281    1.1027   -6.1491 H         1 UNK         0.3459 
    133 H133       36.3954    2.1813   -7.5131 H         1 UNK         0.3459 
    134 H134       34.7107   -0.5996   -5.1907 H         1 UNK         0.0612 
    135 H135       36.4488   -0.6646   -5.3062 H         1 UNK         0.0612 
    136 H136       35.0929   -1.8119   -2.8906 H         1 UNK         0.0624 
    137 H137       35.0729   -3.5535   -2.7697 H         1 UNK         0.0624 
@<TRIPOS>BOND
     1    1    2 1    
     2    1   72 1    
     3    1   73 1    
     4    1   74 1    
     5    2    3 2    
     6    2    4 am   BACKBONE|DICT|INTERRES
     7    4    5 1    
     8    4   75 1    
     9    5    6 1    
    10    5   35 1    
    11    5   76 1    
    12    6    7 1    
    13    6   77 1    
    14    6   78 1    
    15    7    8 1    
    16    8    9 1    
    17    8   79 1    
    18    8   80 1    
    19    9   10 ar   
    20    9   14 ar   
    21   10   11 ar   
    22   10   81 1    
    23   11   12 ar   
    24   11   71 1    
    25   12   13 ar   
    26   12   82 1    
    27   13   14 ar   
    28   13   15 1    
    29   14   83 1    
    30   15   16 1    
    31   15   84 1    
    32   15   85 1    
    33   16   17 1    
    34   17   18 1    
    35   17   86 1    
    36   17   87 1    
    37   18   19 1    
    38   18   37 1    
    39   18   88 1    
    40   19   20 am   BACKBONE|DICT|INTERRES
    41   19   89 1    
    42   20   21 2    
    43   20   22 1    
    44   22   23 1    
    45   22   24 1    
    46   22   90 1    
    47   23   91 1    
    48   23   92 1    
    49   23   93 1    
    50   24   25 am   BACKBONE|DICT|INTERRES
    51   24   94 1    
    52   25   26 2    
    53   25   27 1    
    54   27   28 1    
    55   27   29 1    
    56   27   95 1    
    57   28   96 1    
    58   28   97 1    
    59   28   98 1    
    60   29   30 am   BACKBONE|DICT|INTERRES
    61   29   99 1    
    62   30   31 2    
    63   30   32 1    
    64   32   33 1    
    65   32   34 1    
    66   32  100 1    
    67   33  101 1    
    68   33  102 1    
    69   33  103 1    
    70   34   35 am   BACKBONE|DICT|INTERRES
    71   34  104 1    
    72   35   36 2    
    73   37   38 2    
    74   37   39 am   BACKBONE|DICT|INTERRES
    75   39   40 1    
    76   39  105 1    
    77   40   41 1    
    78   40   42 1    
    79   40  106 1    
    80   41  107 1    
    81   41  108 1    
    82   41  109 1    
    83   42   43 2    
    84   42   44 am   BACKBONE|DICT|INTERRES
    85   44   45 1    
    86   44  110 1    
    87   45   46 1    
    88   45   47 1    
    89   45  111 1    
    90   46  112 1    
    91   46  113 1    
    92   46  114 1    
    93   47   48 2    
    94   47   49 am   BACKBONE|DICT|INTERRES
    95   49   50 1    
    96   49  115 1    
    97   50   51 1    
    98   50   52 1    
    99   50  116 1    
   100   51  117 1    
   101   51  118 1    
   102   51  119 1    
   103   52   53 2    
   104   52   54 am   BACKBONE|DICT|INTERRES
   105   54   55 1    
   106   54  120 1    
   107   55   56 1    
   108   55   57 1    
   109   55  121 1    
   110   56  122 1    
   111   56  123 1    
   112   56  124 1    
   113   57   58 2    
   114   57   59 am   BACKBONE|DICT|INTERRES
   115   59   60 1    
   116   59  125 1    
   117   60   61 1    
   118   60   62 1    
   119   60  126 1    
   120   61  127 1    
   121   61  128 1    
   122   61  129 1    
   123   62   63 2    
   124   62   64 am   BACKBONE|DICT|INTERRES
   125   64   65 1    
   126   64  130 1    
   127   65   66 1    
   128   65   69 1    
   129   65  131 1    
   130   66   67 am   BACKBONE|DICT|INTERRES
   131   66   68 2    
   132   67  132 1    
   133   67  133 1    
   134   69   70 1    
   135   69  134 1    
   136   69  135 1    
   137   70   71 1    
   138   71  136 1    
   139   71  137 1    
@<TRIPOS>SUBSTRUCTURE
     1 UNK         1 GROUP             0       ****    0 ROOT    
