@<TRIPOS>MOLECULE
3R137
137   139    1
SMALL
USER_CHARGES


@<TRIPOS>ATOM
      1 CA         25.2013   -4.0232    2.6267 C.3       0 UNK        -0.2020 
      2 C          25.8326   -5.1392    1.7976 C.2       0 UNK         0.4855 
      3 O          25.4053   -6.2859    1.9131 O.2       0 UNK        -0.5197 
      4 N          26.8493   -4.8762    0.9624 N.am      1 UNK        -0.4892 
      5 CA         27.4403   -3.5680    0.6486 C.3       1 UNK         0.0835 
      6 C6         28.7666   -3.7449   -0.1338 C.3       12 UNK        -0.0855 
      7 S7         29.8168   -2.2515   -0.1818 S.3       12 UNK        -0.2931 
      8 C8         29.3214   -1.4460   -1.7416 C.3       12 UNK         0.0378 
      9 C9         29.9021   -2.1202   -2.9779 C.ar      12 UNK        -0.0802 
     10 C10        31.0982   -1.6559   -3.5295 C.ar      12 UNK        -0.0944 
     11 C11        31.6115   -2.2207   -4.7019 C.ar      12 UNK        -0.0787 
     12 C12        30.9428   -3.2987   -5.2942 C.ar      12 UNK        -0.0862 
     13 C13        29.7595   -3.7938   -4.7350 C.ar      12 UNK        -0.0733 
     14 C14        29.2292   -3.1767   -3.5980 C.ar      12 UNK        -0.0832 
     15 C15        29.0853   -5.0331   -5.3148 C.3       12 UNK         0.0240 
     16 S16        28.0903   -4.7000   -6.8026 S.3       12 UNK        -0.2522 
     17 C17        26.7327   -3.6710   -6.1428 C.3       12 UNK        -0.0967 
     18 CA         26.4951   -2.3829   -6.9665 C.3       5 UNK         0.0660 
     19 N          25.3090   -1.6538   -6.5173 N.am      5 UNK        -0.4015 
     20 C          24.6942   -0.6996   -7.2325 C.2       4 UNK         0.4946 
     21 O          25.0178   -0.3843   -8.3775 O.2       4 UNK        -0.5353 
     22 CA         23.5542    0.0637   -6.5365 C.3       4 UNK         0.0277 
     23 CB         22.2257   -0.6954   -6.6818 C.3       4 UNK        -0.1981 
     24 N          23.8270    0.3151   -5.1190 N.am      4 UNK        -0.4209 
     25 C          24.8253    1.0889   -4.6676 C.2       3 UNK         0.4942 
     26 O          25.5692    1.7370   -5.4023 O.2       3 UNK        -0.5208 
     27 CA         25.0666    1.1090   -3.1481 C.3       3 UNK         0.0250 
     28 CB         24.3108    2.2791   -2.4993 C.3       3 UNK        -0.1990 
     29 N          24.7052   -0.1437   -2.4736 N.am      3 UNK        -0.4232 
     30 C          25.2885   -1.3288   -2.7005 C.2       2 UNK         0.4993 
     31 O          26.1820   -1.5044   -3.5329 O.2       2 UNK        -0.5286 
     32 CA         24.7400   -2.5312   -1.9126 C.3       2 UNK         0.0209 
     33 CB         24.0948   -3.5463   -2.8712 C.3       2 UNK        -0.1931 
     34 N          25.7698   -3.2080   -1.1195 N.am      2 UNK        -0.4546 
     35 C          26.4368   -2.6580   -0.0936 C.2       1 UNK         0.5154 
     36 O          26.2465   -1.5095    0.3077 O.2       1 UNK        -0.5181 
     37 C          27.7211   -1.4511   -7.0028 C.2       5 UNK         0.5014 
     38 O          28.4507   -1.4724   -7.9932 O.2       5 UNK        -0.5248 
     39 N          27.8908   -0.6094   -5.9707 N.am      6 UNK        -0.4434 
     40 CA         28.9504    0.4032   -5.9107 C.3       6 UNK         0.0363 
     41 CB         28.9026    1.1469   -4.5676 C.3       6 UNK        -0.1936 
     42 C          28.8904    1.4010   -7.0798 C.2       6 UNK         0.5081 
     43 O          29.9201    1.6826   -7.6940 O.2       6 UNK        -0.5248 
     44 N          27.6776    1.8800   -7.3905 N.am      7 UNK        -0.4718 
     45 CA         27.3877    2.7516   -8.5294 C.3       7 UNK         0.0273 
     46 CB         25.9381    3.2534   -8.4365 C.3       7 UNK        -0.1935 
     47 C          27.6453    2.0752   -9.8864 C.2       7 UNK         0.5018 
     48 O          28.2152    2.7136  -10.7715 O.2       7 UNK        -0.5186 
     49 N          27.2428    0.8026  -10.0232 N.am      8 UNK        -0.4240 
     50 CA         27.4726   -0.0127  -11.2200 C.3       8 UNK         0.0235 
     51 CB         26.6432   -1.3044  -11.1410 C.3       8 UNK        -0.2000 
     52 C          28.9595   -0.3327  -11.4485 C.2       8 UNK         0.4941 
     53 O          29.4272   -0.2436  -12.5845 O.2       8 UNK        -0.5273 
     54 N          29.6753   -0.6857  -10.3715 N.am      9 UNK        -0.4262 
     55 CA         31.1167   -0.9451  -10.3739 C.3       9 UNK         0.0264 
     56 CB         31.5126   -1.6263   -9.0525 C.3       9 UNK        -0.1955 
     57 C          31.9587    0.3238  -10.5890 C.2       9 UNK         0.5031 
     58 O          33.0500    0.2261  -11.1518 O.2       9 UNK        -0.5390 
     59 N          31.4484    1.4733  -10.1194 N.am      10 UNK        -0.4204 
     60 CA         32.0913    2.7929  -10.0887 C.3       10 UNK         0.0237 
     61 CB         32.3319    3.3331  -11.5145 C.3       10 UNK        -0.1985 
     62 C          33.3565    2.8055   -9.2073 C.2       10 UNK         0.4970 
     63 O          34.3234    3.5035   -9.5181 O.2       10 UNK        -0.4914 
     64 N          33.3221    2.0193   -8.1249 N.am      11 UNK        -0.4285 
     65 CA         34.4157    1.8390   -7.1600 C.3       11 UNK         0.1007 
     66 C          34.5669    2.9877   -6.1197 C.2       11 UNK         0.5703 
     67 N          33.6465    3.9421   -6.0411 N.am      11 UNK        -0.7361 
     68 O          35.5496    3.0228   -5.3826 O.2       11 UNK        -0.4986 
     69 C69        34.3459    0.4375   -6.4948 C.3       12 UNK        -0.0947 
     70 S70        32.7453    0.1061   -5.6881 S.3       12 UNK        -0.2240 
     71 C71        32.8930   -1.6698   -5.3154 C.3       12 UNK         0.0194 
     72 H72        25.9507   -3.3601    3.0561 H         1 UNK         0.0906 
     73 H73        24.5154   -3.4340    2.0188 H         1 UNK         0.0906 
     74 H74        24.6312   -4.4447    3.4544 H         1 UNK         0.0906 
     75 H75        27.2448   -5.6555    0.4553 H         1 UNK         0.3140 
     76 H76        27.6861   -3.0806    1.5942 H         1 UNK         0.1085 
     77 H77        29.3688   -4.5096    0.3601 H         1 UNK         0.0836 
     78 H78        28.5901   -4.1349   -1.1331 H         1 UNK         0.0836 
     79 H79        28.2371   -1.3942   -1.8190 H         1 UNK         0.0731 
     80 H80        29.6597   -0.4098   -1.6987 H         1 UNK         0.0731 
     81 H81        31.6187   -0.8308   -3.0627 H         1 UNK         0.1312 
     82 H82        31.3452   -3.7614   -6.1850 H         1 UNK         0.1406 
     83 H83        28.2918   -3.5260   -3.1911 H         1 UNK         0.1631 
     84 H84        28.4533   -5.5117   -4.5650 H         1 UNK         0.0717 
     85 H85        29.8510   -5.7670   -5.5703 H         1 UNK         0.0717 
     86 H86        25.8288   -4.2820   -6.1494 H         1 UNK         0.0934 
     87 H87        26.9165   -3.4295   -5.0978 H         1 UNK         0.0934 
     88 H88        26.3039   -2.6937   -7.9961 H         1 UNK         0.0739 
     89 H89        25.0302   -1.8000   -5.5578 H         1 UNK         0.3093 
     90 H90        23.4528    1.0305   -7.0347 H         1 UNK         0.0818 
     91 H91        21.3952   -0.1251   -6.2650 H         1 UNK         0.0819 
     92 H92        21.9953   -0.8774   -7.7326 H         1 UNK         0.0819 
     93 H93        22.2531   -1.6644   -6.1820 H         1 UNK         0.0819 
     94 H94        23.2465   -0.1619   -4.4450 H         1 UNK         0.3041 
     95 H95        26.1358    1.2664   -2.9923 H         1 UNK         0.0784 
     96 H96        24.5823    3.2260   -2.9686 H         1 UNK         0.0793 
     97 H97        23.2301    2.1665   -2.5943 H         1 UNK         0.0793 
     98 H98        24.5489    2.3664   -1.4390 H         1 UNK         0.0793 
     99 H99        23.9831   -0.0814   -1.7699 H         1 UNK         0.3024 
    100 H100       23.9707   -2.1796   -1.2214 H         1 UNK         0.1171 
    101 H101       23.6308   -4.3678   -2.3247 H         1 UNK         0.0786 
    102 H102       23.3132   -3.0787   -3.4716 H         1 UNK         0.0786 
    103 H103       24.8245   -3.9735   -3.5602 H         1 UNK         0.0786 
    104 H104       25.9732   -4.1654   -1.3659 H         1 UNK         0.2977 
    105 H105       27.2688   -0.6829   -5.1734 H         1 UNK         0.3127 
    106 H106       29.8963   -0.1347   -5.9754 H         1 UNK         0.0770 
    107 H107       28.0570    1.8314   -4.5076 H         1 UNK         0.0814 
    108 H108       29.8085    1.7372   -4.4249 H         1 UNK         0.0814 
    109 H109       28.8273    0.4560   -3.7319 H         1 UNK         0.0814 
    110 H110       26.8949    1.6410   -6.7859 H         1 UNK         0.2983 
    111 H111       28.0532    3.6150   -8.4611 H         1 UNK         0.0947 
    112 H112       25.7033    3.9264   -9.2622 H         1 UNK         0.0806 
    113 H113       25.7682    3.8030   -7.5104 H         1 UNK         0.0806 
    114 H114       25.2232    2.4305   -8.4708 H         1 UNK         0.0806 
    115 H115       26.7344    0.3646   -9.2614 H         1 UNK         0.3000 
    116 H116       27.1230    0.5596  -12.0820 H         1 UNK         0.0850 
    117 H117       26.7808   -1.9122  -12.0361 H         1 UNK         0.0810 
    118 H118       25.5783   -1.0869  -11.0568 H         1 UNK         0.0810 
    119 H119       26.9278   -1.9156  -10.2842 H         1 UNK         0.0810 
    120 H120       29.1926   -0.8127   -9.4809 H         1 UNK         0.3040 
    121 H121       31.3363   -1.6321  -11.1938 H         1 UNK         0.0766 
    122 H122       31.2726   -1.0019   -8.1908 H         1 UNK         0.0812 
    123 H123       32.5833   -1.8323   -9.0196 H         1 UNK         0.0812 
    124 H124       30.9935   -2.5766   -8.9251 H         1 UNK         0.0812 
    125 H125       30.5809    1.4162   -9.5938 H         1 UNK         0.3205 
    126 H126       31.3783    3.4598   -9.6017 H         1 UNK         0.0754 
    127 H127       32.6734    4.3685  -11.4874 H         1 UNK         0.0769 
    128 H128       31.4152    3.3099  -12.1042 H         1 UNK         0.0769 
    129 H129       33.0885    2.7556  -12.0463 H         1 UNK         0.0769 
    130 H130       32.4695    1.5175   -7.9163 H         1 UNK         0.2981 
    131 H131       35.3464    1.8588   -7.7301 H         1 UNK         0.0541 
    132 H132       32.8353    3.9174   -6.6370 H         1 UNK         0.3459 
    133 H133       33.7600    4.6840   -5.3688 H         1 UNK         0.3459 
    134 H134       35.1472    0.3062   -5.7654 H         1 UNK         0.0612 
    135 H135       34.5057   -0.3282   -7.2556 H         1 UNK         0.0612 
    136 H136       33.7209   -1.8261   -4.6227 H         1 UNK         0.0624 
    137 H137       33.1416   -2.2048   -6.2332 H         1 UNK         0.0624 
@<TRIPOS>BOND
     1    1    2 1    
     2    1   72 1    
     3    1   73 1    
     4    1   74 1    
     5    2    3 2    
     6    2    4 am   BACKBONE|DICT|INTERRES
     7    4    5 1    
     8    4   75 1    
     9    5    6 1    
    10    5   35 1    
    11    5   76 1    
    12    6    7 1    
    13    6   77 1    
    14    6   78 1    
    15    7    8 1    
    16    8    9 1    
    17    8   79 1    
    18    8   80 1    
    19    9   10 ar   
    20    9   14 ar   
    21   10   11 ar   
    22   10   81 1    
    23   11   12 ar   
    24   11   71 1    
    25   12   13 ar   
    26   12   82 1    
    27   13   14 ar   
    28   13   15 1    
    29   14   83 1    
    30   15   16 1    
    31   15   84 1    
    32   15   85 1    
    33   16   17 1    
    34   17   18 1    
    35   17   86 1    
    36   17   87 1    
    37   18   19 1    
    38   18   37 1    
    39   18   88 1    
    40   19   20 am   BACKBONE|DICT|INTERRES
    41   19   89 1    
    42   20   21 2    
    43   20   22 1    
    44   22   23 1    
    45   22   24 1    
    46   22   90 1    
    47   23   91 1    
    48   23   92 1    
    49   23   93 1    
    50   24   25 am   BACKBONE|DICT|INTERRES
    51   24   94 1    
    52   25   26 2    
    53   25   27 1    
    54   27   28 1    
    55   27   29 1    
    56   27   95 1    
    57   28   96 1    
    58   28   97 1    
    59   28   98 1    
    60   29   30 am   BACKBONE|DICT|INTERRES
    61   29   99 1    
    62   30   31 2    
    63   30   32 1    
    64   32   33 1    
    65   32   34 1    
    66   32  100 1    
    67   33  101 1    
    68   33  102 1    
    69   33  103 1    
    70   34   35 am   BACKBONE|DICT|INTERRES
    71   34  104 1    
    72   35   36 2    
    73   37   38 2    
    74   37   39 am   BACKBONE|DICT|INTERRES
    75   39   40 1    
    76   39  105 1    
    77   40   41 1    
    78   40   42 1    
    79   40  106 1    
    80   41  107 1    
    81   41  108 1    
    82   41  109 1    
    83   42   43 2    
    84   42   44 am   BACKBONE|DICT|INTERRES
    85   44   45 1    
    86   44  110 1    
    87   45   46 1    
    88   45   47 1    
    89   45  111 1    
    90   46  112 1    
    91   46  113 1    
    92   46  114 1    
    93   47   48 2    
    94   47   49 am   BACKBONE|DICT|INTERRES
    95   49   50 1    
    96   49  115 1    
    97   50   51 1    
    98   50   52 1    
    99   50  116 1    
   100   51  117 1    
   101   51  118 1    
   102   51  119 1    
   103   52   53 2    
   104   52   54 am   BACKBONE|DICT|INTERRES
   105   54   55 1    
   106   54  120 1    
   107   55   56 1    
   108   55   57 1    
   109   55  121 1    
   110   56  122 1    
   111   56  123 1    
   112   56  124 1    
   113   57   58 2    
   114   57   59 am   BACKBONE|DICT|INTERRES
   115   59   60 1    
   116   59  125 1    
   117   60   61 1    
   118   60   62 1    
   119   60  126 1    
   120   61  127 1    
   121   61  128 1    
   122   61  129 1    
   123   62   63 2    
   124   62   64 am   BACKBONE|DICT|INTERRES
   125   64   65 1    
   126   64  130 1    
   127   65   66 1    
   128   65   69 1    
   129   65  131 1    
   130   66   67 am   BACKBONE|DICT|INTERRES
   131   66   68 2    
   132   67  132 1    
   133   67  133 1    
   134   69   70 1    
   135   69  134 1    
   136   69  135 1    
   137   70   71 1    
   138   71  136 1    
   139   71  137 1    
@<TRIPOS>SUBSTRUCTURE
     1 UNK         1 GROUP             0       ****    0 ROOT    
