@<TRIPOS>MOLECULE
3R137
137   139    1
SMALL
USER_CHARGES


@<TRIPOS>ATOM
      1 CA         26.5849   -7.9367   -4.0432 C.3       0 UNK        -0.2020 
      2 C          26.9279   -6.5832   -3.4400 C.2       0 UNK         0.4855 
      3 O          26.9152   -5.5786   -4.1499 O.2       0 UNK        -0.5197 
      4 N          27.2127   -6.5460   -2.1304 N.am      1 UNK        -0.4892 
      5 CA         27.6067   -5.3808   -1.3178 C.3       1 UNK         0.0835 
      6 C6         28.8922   -4.6825   -1.8415 C.3       12 UNK        -0.0855 
      7 S7         29.9240   -4.0153   -0.4915 S.3       12 UNK        -0.2931 
      8 C8         31.4973   -3.7053   -1.3566 C.3       12 UNK         0.0378 
      9 C9         31.3490   -2.6031   -2.3938 C.ar      12 UNK        -0.0802 
     10 C10        31.3732   -1.2614   -2.0021 C.ar      12 UNK        -0.0944 
     11 C11        31.1836   -0.2387   -2.9368 C.ar      12 UNK        -0.0787 
     12 C12        30.9487   -0.5797   -4.2750 C.ar      12 UNK        -0.0862 
     13 C13        30.9610   -1.9163   -4.6854 C.ar      12 UNK        -0.0733 
     14 C14        31.1668   -2.9241   -3.7412 C.ar      12 UNK        -0.0832 
     15 C15        30.7487   -2.2698   -6.1501 C.3       12 UNK         0.0240 
     16 S16        29.2151   -3.2144   -6.4453 S.3       12 UNK        -0.2522 
     17 C17        27.9311   -2.1955   -5.6417 C.3       12 UNK        -0.0967 
     18 CA         27.2355   -1.1937   -6.5945 C.3       5 UNK         0.0660 
     19 N          25.9051   -0.8229   -6.0987 N.am      5 UNK        -0.4015 
     20 C          25.0293   -0.0398   -6.7504 C.2       4 UNK         0.4946 
     21 O          25.2456    0.4356   -7.8657 O.2       4 UNK        -0.5353 
     22 CA         23.7114    0.3192   -6.0393 C.3       4 UNK         0.0277 
     23 CB         22.5764   -0.5903   -6.5351 C.3       4 UNK        -0.1981 
     24 N          23.7815    0.2531   -4.5772 N.am      4 UNK        -0.4209 
     25 C          24.5879    0.9961   -3.8041 C.2       3 UNK         0.4942 
     26 O          25.3318    1.8747   -4.2391 O.2       3 UNK        -0.5208 
     27 CA         24.6144    0.6619   -2.3003 C.3       3 UNK         0.0250 
     28 CB         23.6473    1.5758   -1.5310 C.3       3 UNK        -0.1990 
     29 N          24.3143   -0.7431   -1.9865 N.am      3 UNK        -0.4232 
     30 C          25.0032   -1.7966   -2.4487 C.2       2 UNK         0.4993 
     31 O          25.9468   -1.7014   -3.2366 O.2       2 UNK        -0.5286 
     32 CA         24.5020   -3.1847   -2.0285 C.3       2 UNK         0.0209 
     33 CB         23.4019   -3.6635   -2.9906 C.3       2 UNK        -0.1931 
     34 N          25.5980   -4.1511   -2.0561 N.am      2 UNK        -0.4546 
     35 C          26.4620   -4.3709   -1.0595 C.2       1 UNK         0.5154 
     36 O          26.3616   -3.8376    0.0471 O.2       1 UNK        -0.5181 
     37 C          28.1201    0.0413   -6.8668 C.2       5 UNK         0.5014 
     38 O          28.8573    0.0524   -7.8546 O.2       5 UNK        -0.5248 
     39 N          27.9848    1.0854   -6.0339 N.am      6 UNK        -0.4434 
     40 CA         28.6785    2.3678   -6.1771 C.3       6 UNK         0.0363 
     41 CB         28.3831    3.2438   -4.9502 C.3       6 UNK        -0.1936 
     42 C          28.3283    3.1265   -7.4715 C.2       6 UNK         0.5081 
     43 O          29.1474    3.9185   -7.9362 O.2       6 UNK        -0.5248 
     44 N          27.1401    2.8691   -8.0339 N.am      7 UNK        -0.4718 
     45 CA         26.7088    3.3972   -9.3268 C.3       7 UNK         0.0273 
     46 CB         25.2104    3.7382   -9.2639 C.3       7 UNK        -0.1935 
     47 C          26.9890    2.3952  -10.4569 C.2       7 UNK         0.5018 
     48 O          27.4656    2.8025  -11.5166 O.2       7 UNK        -0.5186 
     49 N          26.6664    1.1144  -10.2244 N.am      8 UNK        -0.4240 
     50 CA         26.7242    0.0489  -11.2265 C.3       8 UNK         0.0235 
     51 CB         25.9249   -1.1659  -10.7272 C.3       8 UNK        -0.2000 
     52 C          28.1479   -0.3724  -11.6245 C.2       8 UNK         0.4941 
     53 O          28.3851   -0.6056  -12.8109 O.2       8 UNK        -0.5273 
     54 N          29.0514   -0.4922  -10.6430 N.am      9 UNK        -0.4262 
     55 CA         30.4171   -0.9958  -10.8329 C.3       9 UNK         0.0264 
     56 CB         30.5429   -2.3677  -10.1505 C.3       9 UNK        -0.1955 
     57 C          31.4955   -0.0359  -10.3065 C.2       9 UNK         0.5031 
     58 O          32.6124   -0.0745  -10.8252 O.2       9 UNK        -0.5390 
     59 N          31.1454    0.7939   -9.3121 N.am      10 UNK        -0.4204 
     60 CA         31.9893    1.7154   -8.5402 C.3       10 UNK         0.0237 
     61 CB         32.8644    2.6231   -9.4294 C.3       10 UNK        -0.1985 
     62 C          32.8148    0.9868   -7.4668 C.2       10 UNK         0.4970 
     63 O          33.1575   -0.1874   -7.6192 O.2       10 UNK        -0.4914 
     64 N          33.0862    1.7048   -6.3731 N.am      11 UNK        -0.4285 
     65 CA         33.7865    1.1943   -5.1863 C.3       11 UNK         0.1007 
     66 C          35.3127    1.0280   -5.4144 C.2       11 UNK         0.5703 
     67 N          35.9491    0.1095   -4.7000 N.am      11 UNK        -0.7361 
     68 O          35.9307    1.7458   -6.1993 O.2       11 UNK        -0.4986 
     69 C69        33.4963    2.0604   -3.9291 C.3       12 UNK        -0.0947 
     70 S70        31.7244    2.4444   -3.6933 S.3       12 UNK        -0.2240 
     71 C71        31.1965    1.2121   -2.4537 C.3       12 UNK         0.0194 
     72 H72        27.2808   -8.1744   -4.8473 H         1 UNK         0.0906 
     73 H73        26.6324   -8.7378   -3.3059 H         1 UNK         0.0906 
     74 H74        25.5779   -7.9171   -4.4592 H         1 UNK         0.0906 
     75 H75        27.1598   -7.4112   -1.6092 H         1 UNK         0.3140 
     76 H76        27.8377   -5.8137   -0.3426 H         1 UNK         0.1085 
     77 H77        29.5061   -5.3982   -2.3906 H         1 UNK         0.0836 
     78 H78        28.6541   -3.8892   -2.5542 H         1 UNK         0.0836 
     79 H79        31.8514   -4.6288   -1.8175 H         1 UNK         0.0731 
     80 H80        32.2545   -3.4199   -0.6248 H         1 UNK         0.0731 
     81 H81        31.5202   -1.0158   -0.9590 H         1 UNK         0.1312 
     82 H82        30.7727    0.1952   -5.0069 H         1 UNK         0.1406 
     83 H83        31.1541   -3.9592   -4.0549 H         1 UNK         0.1631 
     84 H84        30.7453   -1.3720   -6.7672 H         1 UNK         0.0717 
     85 H85        31.5959   -2.8622   -6.4977 H         1 UNK         0.0717 
     86 H86        27.1951   -2.9112   -5.2708 H         1 UNK         0.0934 
     87 H87        28.3135   -1.7024   -4.7469 H         1 UNK         0.0934 
     88 H88        27.0752   -1.6921   -7.5519 H         1 UNK         0.0739 
     89 H89        25.6825   -1.1398   -5.1597 H         1 UNK         0.3093 
     90 H90        23.4706    1.3492   -6.3110 H         1 UNK         0.0818 
     91 H91        21.6147   -0.2892   -6.1194 H         1 UNK         0.0819 
     92 H92        22.4855   -0.5430   -7.6215 H         1 UNK         0.0819 
     93 H93        22.7477   -1.6340   -6.2679 H         1 UNK         0.0819 
     94 H94        23.2036   -0.4407   -4.1263 H         1 UNK         0.3041 
     95 H95        25.6282    0.8627   -1.9472 H         1 UNK         0.0784 
     96 H96        23.8638    2.6269   -1.7282 H         1 UNK         0.0793 
     97 H97        22.6094    1.3981   -1.8156 H         1 UNK         0.0793 
     98 H98        23.7317    1.4276   -0.4542 H         1 UNK         0.0793 
     99 H99        23.5379   -0.9060   -1.3607 H         1 UNK         0.3024 
    100 H100       24.0938   -3.1274   -1.0166 H         1 UNK         0.1171 
    101 H101       23.0350   -4.6513   -2.7107 H         1 UNK         0.0786 
    102 H102       22.5459   -2.9876   -2.9800 H         1 UNK         0.0786 
    103 H103       23.7617   -3.7208   -4.0191 H         1 UNK         0.0786 
    104 H104       25.8230   -4.5716   -2.9538 H         1 UNK         0.2977 
    105 H105       27.3112    1.0232   -5.2809 H         1 UNK         0.3127 
    106 H106       29.7492    2.1590   -6.1951 H         1 UNK         0.0770 
    107 H107       27.3335    3.5364   -4.9061 H         1 UNK         0.0814 
    108 H108       28.9752    4.1596   -4.9763 H         1 UNK         0.0814 
    109 H109       28.6270    2.7278   -4.0216 H         1 UNK         0.0814 
    110 H110       26.5376    2.1785   -7.6036 H         1 UNK         0.2983 
    111 H111       27.2512    4.3176   -9.5553 H         1 UNK         0.0947 
    112 H112       24.8622    4.1399  -10.2164 H         1 UNK         0.0806 
    113 H113       25.0090    4.4915   -8.5022 H         1 UNK         0.0806 
    114 H114       24.6006    2.8627   -9.0368 H         1 UNK         0.0806 
    115 H115       26.2345    0.8744   -9.3337 H         1 UNK         0.3000 
    116 H116       26.2327    0.4212  -12.1282 H         1 UNK         0.0850 
    117 H117       25.9107   -1.9591  -11.4760 H         1 UNK         0.0810 
    118 H118       24.8888   -0.8999  -10.5167 H         1 UNK         0.0810 
    119 H119       26.3530   -1.5847   -9.8167 H         1 UNK         0.0810 
    120 H120       28.7725   -0.2791   -9.6884 H         1 UNK         0.3040 
    121 H121       30.6251   -1.1332  -11.8960 H         1 UNK         0.0766 
    122 H122       29.8511   -3.0906  -10.5828 H         1 UNK         0.0812 
    123 H123       30.3346   -2.3023   -9.0833 H         1 UNK         0.0812 
    124 H124       31.5497   -2.7722  -10.2633 H         1 UNK         0.0812 
    125 H125       30.2249    0.6461   -8.9041 H         1 UNK         0.3205 
    126 H126       31.2870    2.3633   -8.0178 H         1 UNK         0.0754 
    127 H127       33.3145    3.4234   -8.8412 H         1 UNK         0.0769 
    128 H128       32.2764    3.0926  -10.2182 H         1 UNK         0.0769 
    129 H129       33.6825    2.0747   -9.8968 H         1 UNK         0.0769 
    130 H130       32.8025    2.6718   -6.3284 H         1 UNK         0.2981 
    131 H131       33.3982    0.1943   -4.9928 H         1 UNK         0.0541 
    132 H132       35.4556   -0.4768   -4.0452 H         1 UNK         0.3459 
    133 H133       36.9432   -0.0038   -4.8230 H         1 UNK         0.3459 
    134 H134       34.0243    3.0133   -3.9984 H         1 UNK         0.0612 
    135 H135       33.8766    1.5689   -3.0319 H         1 UNK         0.0612 
    136 H136       30.1879    1.4690   -2.1281 H         1 UNK         0.0624 
    137 H137       31.8385    1.3123   -1.5772 H         1 UNK         0.0624 
@<TRIPOS>BOND
     1    1    2 1    
     2    1   72 1    
     3    1   73 1    
     4    1   74 1    
     5    2    3 2    
     6    2    4 am   BACKBONE|DICT|INTERRES
     7    4    5 1    
     8    4   75 1    
     9    5    6 1    
    10    5   35 1    
    11    5   76 1    
    12    6    7 1    
    13    6   77 1    
    14    6   78 1    
    15    7    8 1    
    16    8    9 1    
    17    8   79 1    
    18    8   80 1    
    19    9   10 ar   
    20    9   14 ar   
    21   10   11 ar   
    22   10   81 1    
    23   11   12 ar   
    24   11   71 1    
    25   12   13 ar   
    26   12   82 1    
    27   13   14 ar   
    28   13   15 1    
    29   14   83 1    
    30   15   16 1    
    31   15   84 1    
    32   15   85 1    
    33   16   17 1    
    34   17   18 1    
    35   17   86 1    
    36   17   87 1    
    37   18   19 1    
    38   18   37 1    
    39   18   88 1    
    40   19   20 am   BACKBONE|DICT|INTERRES
    41   19   89 1    
    42   20   21 2    
    43   20   22 1    
    44   22   23 1    
    45   22   24 1    
    46   22   90 1    
    47   23   91 1    
    48   23   92 1    
    49   23   93 1    
    50   24   25 am   BACKBONE|DICT|INTERRES
    51   24   94 1    
    52   25   26 2    
    53   25   27 1    
    54   27   28 1    
    55   27   29 1    
    56   27   95 1    
    57   28   96 1    
    58   28   97 1    
    59   28   98 1    
    60   29   30 am   BACKBONE|DICT|INTERRES
    61   29   99 1    
    62   30   31 2    
    63   30   32 1    
    64   32   33 1    
    65   32   34 1    
    66   32  100 1    
    67   33  101 1    
    68   33  102 1    
    69   33  103 1    
    70   34   35 am   BACKBONE|DICT|INTERRES
    71   34  104 1    
    72   35   36 2    
    73   37   38 2    
    74   37   39 am   BACKBONE|DICT|INTERRES
    75   39   40 1    
    76   39  105 1    
    77   40   41 1    
    78   40   42 1    
    79   40  106 1    
    80   41  107 1    
    81   41  108 1    
    82   41  109 1    
    83   42   43 2    
    84   42   44 am   BACKBONE|DICT|INTERRES
    85   44   45 1    
    86   44  110 1    
    87   45   46 1    
    88   45   47 1    
    89   45  111 1    
    90   46  112 1    
    91   46  113 1    
    92   46  114 1    
    93   47   48 2    
    94   47   49 am   BACKBONE|DICT|INTERRES
    95   49   50 1    
    96   49  115 1    
    97   50   51 1    
    98   50   52 1    
    99   50  116 1    
   100   51  117 1    
   101   51  118 1    
   102   51  119 1    
   103   52   53 2    
   104   52   54 am   BACKBONE|DICT|INTERRES
   105   54   55 1    
   106   54  120 1    
   107   55   56 1    
   108   55   57 1    
   109   55  121 1    
   110   56  122 1    
   111   56  123 1    
   112   56  124 1    
   113   57   58 2    
   114   57   59 am   BACKBONE|DICT|INTERRES
   115   59   60 1    
   116   59  125 1    
   117   60   61 1    
   118   60   62 1    
   119   60  126 1    
   120   61  127 1    
   121   61  128 1    
   122   61  129 1    
   123   62   63 2    
   124   62   64 am   BACKBONE|DICT|INTERRES
   125   64   65 1    
   126   64  130 1    
   127   65   66 1    
   128   65   69 1    
   129   65  131 1    
   130   66   67 am   BACKBONE|DICT|INTERRES
   131   66   68 2    
   132   67  132 1    
   133   67  133 1    
   134   69   70 1    
   135   69  134 1    
   136   69  135 1    
   137   70   71 1    
   138   71  136 1    
   139   71  137 1    
@<TRIPOS>SUBSTRUCTURE
     1 UNK         1 GROUP             0       ****    0 ROOT    
