@<TRIPOS>MOLECULE
3R137
137   139    1
SMALL
USER_CHARGES


@<TRIPOS>ATOM
      1 CA         29.1526   -0.8184    1.1717 C.3       0 UNK        -0.2020 
      2 C          28.4875   -1.2918   -0.1112 C.2       0 UNK         0.4855 
      3 O          27.2628   -1.2316   -0.2207 O.2       0 UNK        -0.5197 
      4 N          29.2873   -1.7398   -1.0910 N.am      1 UNK        -0.4892 
      5 CA         28.8603   -2.3052   -2.3841 C.3       1 UNK         0.0835 
      6 C6         28.2675   -3.7358   -2.2436 C.3       12 UNK        -0.0855 
      7 S7         29.5443   -4.9221   -1.6930 S.3       12 UNK        -0.2931 
      8 C8         29.8301   -5.9355   -3.1885 C.3       12 UNK         0.0378 
      9 C9         30.0098   -5.1060   -4.4561 C.ar      12 UNK        -0.0802 
     10 C10        31.0074   -4.1303   -4.5351 C.ar      12 UNK        -0.0944 
     11 C11        31.1204   -3.3186   -5.6673 C.ar      12 UNK        -0.0787 
     12 C12        30.2576   -3.5187   -6.7495 C.ar      12 UNK        -0.0862 
     13 C13        29.2837   -4.5218   -6.6999 C.ar      12 UNK        -0.0733 
     14 C14        29.1614   -5.3063   -5.5491 C.ar      12 UNK        -0.0832 
     15 C15        28.3712   -4.7768   -7.8918 C.3       12 UNK         0.0240 
     16 S16        26.6356   -4.3660   -7.5300 S.3       12 UNK        -0.2522 
     17 C17        26.7254   -2.5496   -7.4619 C.3       12 UNK        -0.0967 
     18 CA         25.3641   -1.9203   -7.0750 C.3       5 UNK         0.0660 
     19 N          24.9933   -2.2462   -5.7031 N.am      5 UNK        -0.4015 
     20 C          23.7566   -2.5213   -5.2766 C.2       4 UNK         0.4946 
     21 O          22.7657   -2.5487   -6.0080 O.2       4 UNK        -0.5353 
     22 CA         23.6006   -2.7931   -3.7752 C.3       4 UNK         0.0277 
     23 CB         24.2899   -4.1109   -3.3788 C.3       4 UNK        -0.1981 
     24 N          24.1652   -1.6914   -2.9957 N.am      4 UNK        -0.4209 
     25 C          23.4534   -0.6857   -2.4674 C.2       3 UNK         0.4942 
     26 O          22.2275   -0.5971   -2.5490 O.2       3 UNK        -0.5208 
     27 CA         24.2264    0.4070   -1.7058 C.3       3 UNK         0.0250 
     28 CB         24.1854    0.1371   -0.1931 C.3       3 UNK        -0.1990 
     29 N          25.6195    0.5276   -2.1433 N.am      3 UNK        -0.4232 
     30 C          25.9919    1.1265   -3.2857 C.2       2 UNK         0.4993 
     31 O          25.2053    1.7198   -4.0231 O.2       2 UNK        -0.5286 
     32 CA         27.4793    1.0582   -3.6862 C.3       2 UNK         0.0209 
     33 CB         28.1842    2.3828   -3.3521 C.3       2 UNK        -0.1931 
     34 N          28.2313   -0.0417   -3.0769 N.am      2 UNK        -0.4546 
     35 C          27.9542   -1.3489   -3.1901 C.2       1 UNK         0.5154 
     36 O          27.0072   -1.7887   -3.8447 O.2       1 UNK        -0.5181 
     37 C          25.4098   -0.3914   -7.1699 C.2       5 UNK         0.5014 
     38 O          26.4686    0.1919   -6.9420 O.2       5 UNK        -0.5248 
     39 N          24.2672    0.2310   -7.4919 N.am      6 UNK        -0.4434 
     40 CA         24.0653    1.6877   -7.5239 C.3       6 UNK         0.0363 
     41 CB         22.6110    1.9845   -7.9239 C.3       6 UNK        -0.1936 
     42 C          25.0398    2.4769   -8.4220 C.2       6 UNK         0.5081 
     43 O          25.2761    3.6568   -8.1611 O.2       6 UNK        -0.5248 
     44 N          25.5964    1.8205   -9.4498 N.am      7 UNK        -0.4718 
     45 CA         26.6485    2.3651  -10.3122 C.3       7 UNK         0.0273 
     46 CB         26.7614    1.4956  -11.5754 C.3       7 UNK        -0.1935 
     47 C          28.0203    2.4735   -9.6170 C.2       7 UNK         0.5018 
     48 O          28.8319    3.2964  -10.0416 O.2       7 UNK        -0.5186 
     49 N          28.2556    1.6390   -8.5886 N.am      8 UNK        -0.4240 
     50 CA         29.4694    1.5292   -7.7670 C.3       8 UNK         0.0235 
     51 CB         29.5506    2.7248   -6.7995 C.3       8 UNK        -0.2000 
     52 C          30.7551    1.3313   -8.5973 C.2       8 UNK         0.4941 
     53 O          31.7817    1.9508   -8.3104 O.2       8 UNK        -0.5273 
     54 N          30.6640    0.4717   -9.6234 N.am      9 UNK        -0.4262 
     55 CA         31.6174    0.3143  -10.7315 C.3       9 UNK         0.0264 
     56 CB         31.1260   -0.8191  -11.6476 C.3       9 UNK        -0.1955 
     57 C          33.0966    0.0927  -10.3598 C.2       9 UNK         0.5031 
     58 O          33.9664    0.4311  -11.1645 O.2       9 UNK        -0.5390 
     59 N          33.3581   -0.4610   -9.1709 N.am      10 UNK        -0.4204 
     60 CA         34.6989   -0.6870   -8.6279 C.3       10 UNK         0.0237 
     61 CB         35.0740   -2.1708   -8.8141 C.3       10 UNK        -0.1985 
     62 C          34.8094   -0.2338   -7.1604 C.2       10 UNK         0.4970 
     63 O          35.6884   -0.7270   -6.4515 O.2       10 UNK        -0.4914 
     64 N          33.9223    0.6653   -6.7108 N.am      11 UNK        -0.4285 
     65 CA         33.8369    1.0988   -5.3052 C.3       11 UNK         0.1007 
     66 C          33.3112    2.5440   -5.0804 C.2       11 UNK         0.5703 
     67 N          32.8866    3.2789   -6.0993 N.am      11 UNK        -0.7361 
     68 O          33.3348    3.0338   -3.9536 O.2       11 UNK        -0.4986 
     69 C69        33.1736    0.0365   -4.3781 C.3       12 UNK        -0.0947 
     70 S70        31.6014   -0.6709   -4.9941 S.3       12 UNK        -0.2240 
     71 C71        32.1886   -2.2400   -5.7166 C.3       12 UNK         0.0194 
     72 H72        28.7924   -1.4044    2.0168 H         1 UNK         0.0906 
     73 H73        30.2373   -0.9146    1.1301 H         1 UNK         0.0906 
     74 H74        28.9106    0.2281    1.3551 H         1 UNK         0.0906 
     75 H75        30.2856   -1.7554   -0.9324 H         1 UNK         0.3140 
     76 H76        29.7640   -2.3741   -2.9873 H         1 UNK         0.1085 
     77 H77        27.4435   -3.7422   -1.5283 H         1 UNK         0.0836 
     78 H78        27.8441   -4.0895   -3.1847 H         1 UNK         0.0836 
     79 H79        28.9945   -6.6287   -3.2974 H         1 UNK         0.0731 
     80 H80        30.7188   -6.5491   -3.0356 H         1 UNK         0.0731 
     81 H81        31.6725   -3.9776   -3.6958 H         1 UNK         0.1312 
     82 H82        30.3504   -2.9004   -7.6316 H         1 UNK         0.1406 
     83 H83        28.3939   -6.0675   -5.5063 H         1 UNK         0.1631 
     84 H84        28.4318   -5.8311   -8.1652 H         1 UNK         0.0717 
     85 H85        28.7013   -4.2155   -8.7674 H         1 UNK         0.0717 
     86 H86        27.5014   -2.2599   -6.7494 H         1 UNK         0.0934 
     87 H87        27.0521   -2.1908   -8.4399 H         1 UNK         0.0934 
     88 H88        24.6085   -2.2877   -7.7730 H         1 UNK         0.0739 
     89 H89        25.7491   -2.1768   -5.0222 H         1 UNK         0.3093 
     90 H90        22.5347   -2.8977   -3.5612 H         1 UNK         0.0818 
     91 H91        25.3645   -4.0843   -3.5610 H         1 UNK         0.0819 
     92 H92        24.1372   -4.3332   -2.3226 H         1 UNK         0.0819 
     93 H93        23.8843   -4.9484   -3.9481 H         1 UNK         0.0819 
     94 H94        25.1766   -1.6529   -2.9365 H         1 UNK         0.3041 
     95 H95        23.7218    1.3579   -1.8908 H         1 UNK         0.0784 
     96 H96        23.1574    0.1233    0.1716 H         1 UNK         0.0793 
     97 H97        24.6312   -0.8260    0.0581 H         1 UNK         0.0793 
     98 H98        24.7170    0.9088    0.3641 H         1 UNK         0.0793 
     99 H99        26.3167    0.0510   -1.5795 H         1 UNK         0.3024 
    100 H100       27.5158    0.9145   -4.7666 H         1 UNK         0.1171 
    101 H101       29.2181    2.3824   -3.6978 H         1 UNK         0.0786 
    102 H102       27.6832    3.2234   -3.8345 H         1 UNK         0.0786 
    103 H103       28.1883    2.5777   -2.2789 H         1 UNK         0.0786 
    104 H104       29.0158    0.2181   -2.4968 H         1 UNK         0.2977 
    105 H105       23.4441   -0.3369   -7.6404 H         1 UNK         0.3127 
    106 H106       24.2167    2.0505   -6.5056 H         1 UNK         0.0770 
    107 H107       22.3823    1.6079   -8.9217 H         1 UNK         0.0814 
    108 H108       22.4185    3.0585   -7.9291 H         1 UNK         0.0814 
    109 H109       21.9061    1.5363   -7.2234 H         1 UNK         0.0814 
    110 H110       25.3271    0.8597   -9.6031 H         1 UNK         0.2983 
    111 H111       26.3561    3.3734  -10.6145 H         1 UNK         0.0947 
    112 H112       27.5216    1.8882  -12.2525 H         1 UNK         0.0806 
    113 H113       25.8212    1.4725  -12.1269 H         1 UNK         0.0806 
    114 H114       27.0378    0.4677  -11.3373 H         1 UNK         0.0806 
    115 H115       27.4860    1.0566   -8.2666 H         1 UNK         0.3000 
    116 H116       29.3484    0.6275   -7.1641 H         1 UNK         0.0850 
    117 H117       30.2919    2.5426   -6.0225 H         1 UNK         0.0810 
    118 H118       28.5972    2.8936   -6.2992 H         1 UNK         0.0810 
    119 H119       29.8245    3.6456   -7.3158 H         1 UNK         0.0810 
    120 H120       29.7763    0.0073   -9.7473 H         1 UNK         0.3040 
    121 H121       31.5802    1.2458  -11.3000 H         1 UNK         0.0766 
    122 H122       30.1333   -0.6083  -12.0459 H         1 UNK         0.0812 
    123 H123       31.0830   -1.7731  -11.1205 H         1 UNK         0.0812 
    124 H124       31.7918   -0.9494  -12.5023 H         1 UNK         0.0812 
    125 H125       32.5781   -0.6963   -8.5749 H         1 UNK         0.3205 
    126 H126       35.4270   -0.0830   -9.1731 H         1 UNK         0.0754 
    127 H127       36.0949   -2.3660   -8.4833 H         1 UNK         0.0769 
    128 H128       35.0172   -2.4635   -9.8627 H         1 UNK         0.0769 
    129 H129       34.4140   -2.8280   -8.2471 H         1 UNK         0.0769 
    130 H130       33.2445    1.0754   -7.3452 H         1 UNK         0.2981 
    131 H131       34.8687    1.1907   -4.9600 H         1 UNK         0.0541 
    132 H132       32.7304    2.8780   -7.0185 H         1 UNK         0.3459 
    133 H133       32.5857    4.2222   -5.9169 H         1 UNK         0.3459 
    134 H134       33.8831   -0.7727   -4.2048 H         1 UNK         0.0612 
    135 H135       32.9867    0.4489   -3.3853 H         1 UNK         0.0612 
    136 H136       32.4960   -2.0663   -6.7471 H         1 UNK         0.0624 
    137 H137       33.0752   -2.5965   -5.1909 H         1 UNK         0.0624 
@<TRIPOS>BOND
     1    1    2 1    
     2    1   72 1    
     3    1   73 1    
     4    1   74 1    
     5    2    3 2    
     6    2    4 am   BACKBONE|DICT|INTERRES
     7    4    5 1    
     8    4   75 1    
     9    5    6 1    
    10    5   35 1    
    11    5   76 1    
    12    6    7 1    
    13    6   77 1    
    14    6   78 1    
    15    7    8 1    
    16    8    9 1    
    17    8   79 1    
    18    8   80 1    
    19    9   10 ar   
    20    9   14 ar   
    21   10   11 ar   
    22   10   81 1    
    23   11   12 ar   
    24   11   71 1    
    25   12   13 ar   
    26   12   82 1    
    27   13   14 ar   
    28   13   15 1    
    29   14   83 1    
    30   15   16 1    
    31   15   84 1    
    32   15   85 1    
    33   16   17 1    
    34   17   18 1    
    35   17   86 1    
    36   17   87 1    
    37   18   19 1    
    38   18   37 1    
    39   18   88 1    
    40   19   20 am   BACKBONE|DICT|INTERRES
    41   19   89 1    
    42   20   21 2    
    43   20   22 1    
    44   22   23 1    
    45   22   24 1    
    46   22   90 1    
    47   23   91 1    
    48   23   92 1    
    49   23   93 1    
    50   24   25 am   BACKBONE|DICT|INTERRES
    51   24   94 1    
    52   25   26 2    
    53   25   27 1    
    54   27   28 1    
    55   27   29 1    
    56   27   95 1    
    57   28   96 1    
    58   28   97 1    
    59   28   98 1    
    60   29   30 am   BACKBONE|DICT|INTERRES
    61   29   99 1    
    62   30   31 2    
    63   30   32 1    
    64   32   33 1    
    65   32   34 1    
    66   32  100 1    
    67   33  101 1    
    68   33  102 1    
    69   33  103 1    
    70   34   35 am   BACKBONE|DICT|INTERRES
    71   34  104 1    
    72   35   36 2    
    73   37   38 2    
    74   37   39 am   BACKBONE|DICT|INTERRES
    75   39   40 1    
    76   39  105 1    
    77   40   41 1    
    78   40   42 1    
    79   40  106 1    
    80   41  107 1    
    81   41  108 1    
    82   41  109 1    
    83   42   43 2    
    84   42   44 am   BACKBONE|DICT|INTERRES
    85   44   45 1    
    86   44  110 1    
    87   45   46 1    
    88   45   47 1    
    89   45  111 1    
    90   46  112 1    
    91   46  113 1    
    92   46  114 1    
    93   47   48 2    
    94   47   49 am   BACKBONE|DICT|INTERRES
    95   49   50 1    
    96   49  115 1    
    97   50   51 1    
    98   50   52 1    
    99   50  116 1    
   100   51  117 1    
   101   51  118 1    
   102   51  119 1    
   103   52   53 2    
   104   52   54 am   BACKBONE|DICT|INTERRES
   105   54   55 1    
   106   54  120 1    
   107   55   56 1    
   108   55   57 1    
   109   55  121 1    
   110   56  122 1    
   111   56  123 1    
   112   56  124 1    
   113   57   58 2    
   114   57   59 am   BACKBONE|DICT|INTERRES
   115   59   60 1    
   116   59  125 1    
   117   60   61 1    
   118   60   62 1    
   119   60  126 1    
   120   61  127 1    
   121   61  128 1    
   122   61  129 1    
   123   62   63 2    
   124   62   64 am   BACKBONE|DICT|INTERRES
   125   64   65 1    
   126   64  130 1    
   127   65   66 1    
   128   65   69 1    
   129   65  131 1    
   130   66   67 am   BACKBONE|DICT|INTERRES
   131   66   68 2    
   132   67  132 1    
   133   67  133 1    
   134   69   70 1    
   135   69  134 1    
   136   69  135 1    
   137   70   71 1    
   138   71  136 1    
   139   71  137 1    
@<TRIPOS>SUBSTRUCTURE
     1 UNK         1 GROUP             0       ****    0 ROOT    
