@<TRIPOS>MOLECULE
3R137
137   139    1
SMALL
USER_CHARGES


@<TRIPOS>ATOM
      1 CA         25.7021   -1.6444   -7.4407 C.3       0 UNK        -0.2020 
      2 C          25.8219   -2.9054   -6.5982 C.2       0 UNK         0.4855 
      3 O          25.2890   -3.9500   -6.9728 O.2       0 UNK        -0.5197 
      4 N          26.5040   -2.8159   -5.4508 N.am      1 UNK        -0.4892 
      5 CA         26.6934   -3.9018   -4.4870 C.3       1 UNK         0.0835 
      6 C6         27.9988   -3.6951   -3.6792 C.3       12 UNK        -0.0855 
      7 S7         28.4756   -5.1729   -2.7129 S.3       12 UNK        -0.2931 
      8 C8         30.2181   -5.4174   -3.1990 C.3       12 UNK         0.0378 
      9 C9         31.0879   -4.1804   -2.9920 C.ar      12 UNK        -0.0802 
     10 C10        31.9852   -3.7934   -3.9906 C.ar      12 UNK        -0.0944 
     11 C11        32.7691   -2.6460   -3.8400 C.ar      12 UNK        -0.0787 
     12 C12        32.6547   -1.8792   -2.6781 C.ar      12 UNK        -0.0862 
     13 C13        31.7666   -2.2592   -1.6681 C.ar      12 UNK        -0.0733 
     14 C14        30.9998   -3.4177   -1.8223 C.ar      12 UNK        -0.0832 
     15 C15        31.6228   -1.4172   -0.4113 C.3       12 UNK         0.0240 
     16 S16        30.0497   -0.5019   -0.3976 S.3       12 UNK        -0.2522 
     17 C17        30.3009    0.7258   -1.7279 C.3       12 UNK        -0.0967 
     18 CA         29.2974    0.5801   -2.9069 C.3       5 UNK         0.0660 
     19 N          27.9083    0.5888   -2.4207 N.am      5 UNK        -0.4015 
     20 C          26.8215    0.1820   -3.0880 C.2       4 UNK         0.4946 
     21 O          26.8604   -0.3329   -4.2122 O.2       4 UNK        -0.5353 
     22 CA         25.4670    0.4605   -2.4210 C.3       4 UNK         0.0277 
     23 CB         25.2251    1.9837   -2.3159 C.3       4 UNK        -0.1981 
     24 N          24.4253   -0.1741   -3.2255 N.am      4 UNK        -0.4209 
     25 C          23.1149   -0.2341   -2.9575 C.2       3 UNK         0.4942 
     26 O          22.5914    0.2265   -1.9424 O.2       3 UNK        -0.5208 
     27 CA         22.2415   -0.9428   -4.0054 C.3       3 UNK         0.0250 
     28 CB         22.2923   -0.2218   -5.3650 C.3       3 UNK        -0.1990 
     29 N          22.6482   -2.3377   -4.1673 N.am      3 UNK        -0.4232 
     30 C          22.3669   -3.3173   -3.2959 C.2       2 UNK         0.4993 
     31 O          21.6259   -3.1825   -2.3216 O.2       2 UNK        -0.5286 
     32 CA         23.0386   -4.6791   -3.5471 C.3       2 UNK         0.0209 
     33 CB         22.1377   -5.5780   -4.4093 C.3       2 UNK        -0.1931 
     34 N          24.3569   -4.5618   -4.1791 N.am      2 UNK        -0.4546 
     35 C          25.4331   -4.0070   -3.6033 C.2       1 UNK         0.5154 
     36 O          25.4289   -3.5427   -2.4616 O.2       1 UNK        -0.5181 
     37 C          29.5090    1.6890   -3.9722 C.2       5 UNK         0.5014 
     38 O          30.3433    2.5763   -3.7843 O.2       5 UNK        -0.5248 
     39 N          28.6914    1.6660   -5.0295 N.am      6 UNK        -0.4434 
     40 CA         28.4882    2.7634   -5.9715 C.3       6 UNK         0.0363 
     41 CB         26.9713    2.9021   -6.2015 C.3       6 UNK        -0.1936 
     42 C          29.2014    2.5359   -7.3093 C.2       6 UNK         0.5081 
     43 O          29.6476    1.4260   -7.6152 O.2       6 UNK        -0.5248 
     44 N          29.2098    3.5948   -8.1315 N.am      7 UNK        -0.4718 
     45 CA         29.7289    3.6149   -9.5037 C.3       7 UNK         0.0273 
     46 CB         29.6392    5.0446  -10.0594 C.3       7 UNK        -0.1935 
     47 C          29.0334    2.6233  -10.4550 C.2       7 UNK         0.5018 
     48 O          29.6431    2.2189  -11.4434 O.2       7 UNK        -0.5186 
     49 N          27.8124    2.1879  -10.1109 N.am      8 UNK        -0.4240 
     50 CA         27.0889    1.0899  -10.7605 C.3       8 UNK         0.0235 
     51 CB         25.6837    0.9801  -10.1465 C.3       8 UNK        -0.2000 
     52 C          27.8212   -0.2665  -10.6869 C.2       8 UNK         0.4941 
     53 O          27.6497   -1.0858  -11.5894 O.2       8 UNK        -0.5273 
     54 N          28.6408   -0.4672   -9.6437 N.am      9 UNK        -0.4262 
     55 CA         29.5499   -1.6079   -9.4950 C.3       9 UNK         0.0264 
     56 CB         29.5032   -2.0847   -8.0308 C.3       9 UNK        -0.1955 
     57 C          30.9956   -1.2553   -9.9031 C.2       9 UNK         0.5031 
     58 O          31.8776   -2.1004   -9.7492 O.2       9 UNK        -0.5390 
     59 N          31.2221   -0.0215  -10.3856 N.am      10 UNK        -0.4204 
     60 CA         32.5165    0.6327  -10.6219 C.3       10 UNK         0.0237 
     61 CB         33.3218   -0.0905  -11.7231 C.3       10 UNK        -0.1985 
     62 C          33.3241    0.8557   -9.3254 C.2       10 UNK         0.4970 
     63 O          34.5551    0.8928   -9.3758 O.2       10 UNK        -0.4914 
     64 N          32.6220    1.0026   -8.1950 N.am      11 UNK        -0.4285 
     65 CA         33.1919    1.1556   -6.8502 C.3       11 UNK         0.1007 
     66 C          33.1061    2.6235   -6.3527 C.2       11 UNK         0.5703 
     67 N          33.7748    2.9406   -5.2519 N.am      11 UNK        -0.7361 
     68 O          32.4596    3.4823   -6.9503 O.2       11 UNK        -0.4986 
     69 C69        32.5243    0.1615   -5.8630 C.3       12 UNK        -0.0947 
     70 S70        32.8298   -1.5655   -6.3683 S.3       12 UNK        -0.2240 
     71 C71        33.7303   -2.2408   -4.9441 C.3       12 UNK         0.0194 
     72 H72        26.1221   -1.8182   -8.4309 H         1 UNK         0.0906 
     73 H73        24.6553   -1.3689   -7.5622 H         1 UNK         0.0906 
     74 H74        26.2293   -0.8025   -6.9916 H         1 UNK         0.0906 
     75 H75        26.8335   -1.9040   -5.1359 H         1 UNK         0.3140 
     76 H76        26.7940   -4.8409   -5.0366 H         1 UNK         0.1085 
     77 H77        27.9215   -2.8390   -3.0058 H         1 UNK         0.0836 
     78 H78        28.8080   -3.4518   -4.3695 H         1 UNK         0.0836 
     79 H79        30.2405   -5.7326   -4.2435 H         1 UNK         0.0731 
     80 H80        30.6344   -6.2412   -2.6180 H         1 UNK         0.0731 
     81 H81        32.0671   -4.3758   -4.8984 H         1 UNK         0.1312 
     82 H82        33.2530   -0.9859   -2.5627 H         1 UNK         0.1406 
     83 H83        30.3097   -3.7070   -1.0411 H         1 UNK         0.1631 
     84 H84        32.4538   -0.7176   -0.3076 H         1 UNK         0.0717 
     85 H85        31.6602   -2.0674    0.4640 H         1 UNK         0.0717 
     86 H86        30.2143    1.7145   -1.2726 H         1 UNK         0.0934 
     87 H87        31.3258    0.6608   -2.0968 H         1 UNK         0.0934 
     88 H88        29.4848   -0.3794   -3.3947 H         1 UNK         0.0739 
     89 H89        27.7814    0.9999   -1.5076 H         1 UNK         0.3093 
     90 H90        25.4690    0.0080   -1.4274 H         1 UNK         0.0818 
     91 H91        26.0291    2.4857   -1.7770 H         1 UNK         0.0819 
     92 H92        25.1541    2.4461   -3.3007 H         1 UNK         0.0819 
     93 H93        24.3054    2.2110   -1.7778 H         1 UNK         0.0819 
     94 H94        24.7876   -0.6000   -4.0687 H         1 UNK         0.3041 
     95 H95        21.2077   -0.9190   -3.6530 H         1 UNK         0.0784 
     96 H96        21.9879    0.8207   -5.2620 H         1 UNK         0.0793 
     97 H97        23.2917   -0.2263   -5.8003 H         1 UNK         0.0793 
     98 H98        21.6143   -0.6851   -6.0822 H         1 UNK         0.0793 
     99 H99        23.2548   -2.5570   -4.9428 H         1 UNK         0.3024 
    100 H100       23.1743   -5.1571   -2.5741 H         1 UNK         0.1171 
    101 H101       21.9860   -5.1621   -5.4063 H         1 UNK         0.0786 
    102 H102       22.5638   -6.5751   -4.5222 H         1 UNK         0.0786 
    103 H103       21.1542   -5.6976   -3.9524 H         1 UNK         0.0786 
    104 H104       24.4355   -4.8521   -5.1472 H         1 UNK         0.2977 
    105 H105       28.0483    0.8828   -5.1000 H         1 UNK         0.3127 
    106 H106       28.8637    3.6954   -5.5431 H         1 UNK         0.0770 
    107 H107       26.5438    1.9998   -6.6411 H         1 UNK         0.0814 
    108 H108       26.7374    3.7340   -6.8666 H         1 UNK         0.0814 
    109 H109       26.4491    3.0929   -5.2644 H         1 UNK         0.0814 
    110 H110       28.8203    4.4637   -7.7941 H         1 UNK         0.2983 
    111 H111       30.7826    3.3314   -9.4560 H         1 UNK         0.0947 
    112 H112       30.0443    5.0966  -11.0712 H         1 UNK         0.0806 
    113 H113       30.2110    5.7440   -9.4490 H         1 UNK         0.0806 
    114 H114       28.6084    5.3985  -10.1026 H         1 UNK         0.0806 
    115 H115       27.3856    2.5907   -9.2901 H         1 UNK         0.3000 
    116 H116       26.9839    1.3430  -11.8178 H         1 UNK         0.0850 
    117 H117       25.7241    0.8017   -9.0718 H         1 UNK         0.0810 
    118 H118       25.1232    0.1579  -10.5941 H         1 UNK         0.0810 
    119 H119       25.1069    1.8901  -10.3130 H         1 UNK         0.0810 
    120 H120       28.7441    0.2633   -8.9444 H         1 UNK         0.3040 
    121 H121       29.2288   -2.4348  -10.1315 H         1 UNK         0.0766 
    122 H122       29.7985   -1.2959   -7.3378 H         1 UNK         0.0812 
    123 H123       28.5057   -2.4189   -7.7544 H         1 UNK         0.0812 
    124 H124       30.1766   -2.9270   -7.8667 H         1 UNK         0.0812 
    125 H125       30.4186    0.5706  -10.5642 H         1 UNK         0.3205 
    126 H126       32.2837    1.6299  -10.9972 H         1 UNK         0.0754 
    127 H127       34.1987    0.4905  -12.0111 H         1 UNK         0.0769 
    128 H128       32.7222   -0.2361  -12.6216 H         1 UNK         0.0769 
    129 H129       33.6761   -1.0674  -11.3929 H         1 UNK         0.0769 
    130 H130       31.6095    1.0164   -8.2282 H         1 UNK         0.2981 
    131 H131       34.2567    0.9175   -6.8846 H         1 UNK         0.0541 
    132 H132       33.7280    3.8879   -4.9116 H         1 UNK         0.3459 
    133 H133       34.3204    2.2559   -4.7535 H         1 UNK         0.3459 
    134 H134       31.4458    0.3204   -5.8270 H         1 UNK         0.0612 
    135 H135       32.8888    0.3108   -4.8459 H         1 UNK         0.0612 
    136 H136       34.2928   -3.1170   -5.2693 H         1 UNK         0.0624 
    137 H137       34.4667   -1.5180   -4.5893 H         1 UNK         0.0624 
@<TRIPOS>BOND
     1    1    2 1    
     2    1   72 1    
     3    1   73 1    
     4    1   74 1    
     5    2    3 2    
     6    2    4 am   BACKBONE|DICT|INTERRES
     7    4    5 1    
     8    4   75 1    
     9    5    6 1    
    10    5   35 1    
    11    5   76 1    
    12    6    7 1    
    13    6   77 1    
    14    6   78 1    
    15    7    8 1    
    16    8    9 1    
    17    8   79 1    
    18    8   80 1    
    19    9   10 ar   
    20    9   14 ar   
    21   10   11 ar   
    22   10   81 1    
    23   11   12 ar   
    24   11   71 1    
    25   12   13 ar   
    26   12   82 1    
    27   13   14 ar   
    28   13   15 1    
    29   14   83 1    
    30   15   16 1    
    31   15   84 1    
    32   15   85 1    
    33   16   17 1    
    34   17   18 1    
    35   17   86 1    
    36   17   87 1    
    37   18   19 1    
    38   18   37 1    
    39   18   88 1    
    40   19   20 am   BACKBONE|DICT|INTERRES
    41   19   89 1    
    42   20   21 2    
    43   20   22 1    
    44   22   23 1    
    45   22   24 1    
    46   22   90 1    
    47   23   91 1    
    48   23   92 1    
    49   23   93 1    
    50   24   25 am   BACKBONE|DICT|INTERRES
    51   24   94 1    
    52   25   26 2    
    53   25   27 1    
    54   27   28 1    
    55   27   29 1    
    56   27   95 1    
    57   28   96 1    
    58   28   97 1    
    59   28   98 1    
    60   29   30 am   BACKBONE|DICT|INTERRES
    61   29   99 1    
    62   30   31 2    
    63   30   32 1    
    64   32   33 1    
    65   32   34 1    
    66   32  100 1    
    67   33  101 1    
    68   33  102 1    
    69   33  103 1    
    70   34   35 am   BACKBONE|DICT|INTERRES
    71   34  104 1    
    72   35   36 2    
    73   37   38 2    
    74   37   39 am   BACKBONE|DICT|INTERRES
    75   39   40 1    
    76   39  105 1    
    77   40   41 1    
    78   40   42 1    
    79   40  106 1    
    80   41  107 1    
    81   41  108 1    
    82   41  109 1    
    83   42   43 2    
    84   42   44 am   BACKBONE|DICT|INTERRES
    85   44   45 1    
    86   44  110 1    
    87   45   46 1    
    88   45   47 1    
    89   45  111 1    
    90   46  112 1    
    91   46  113 1    
    92   46  114 1    
    93   47   48 2    
    94   47   49 am   BACKBONE|DICT|INTERRES
    95   49   50 1    
    96   49  115 1    
    97   50   51 1    
    98   50   52 1    
    99   50  116 1    
   100   51  117 1    
   101   51  118 1    
   102   51  119 1    
   103   52   53 2    
   104   52   54 am   BACKBONE|DICT|INTERRES
   105   54   55 1    
   106   54  120 1    
   107   55   56 1    
   108   55   57 1    
   109   55  121 1    
   110   56  122 1    
   111   56  123 1    
   112   56  124 1    
   113   57   58 2    
   114   57   59 am   BACKBONE|DICT|INTERRES
   115   59   60 1    
   116   59  125 1    
   117   60   61 1    
   118   60   62 1    
   119   60  126 1    
   120   61  127 1    
   121   61  128 1    
   122   61  129 1    
   123   62   63 2    
   124   62   64 am   BACKBONE|DICT|INTERRES
   125   64   65 1    
   126   64  130 1    
   127   65   66 1    
   128   65   69 1    
   129   65  131 1    
   130   66   67 am   BACKBONE|DICT|INTERRES
   131   66   68 2    
   132   67  132 1    
   133   67  133 1    
   134   69   70 1    
   135   69  134 1    
   136   69  135 1    
   137   70   71 1    
   138   71  136 1    
   139   71  137 1    
@<TRIPOS>SUBSTRUCTURE
     1 UNK         1 GROUP             0       ****    0 ROOT    
