@<TRIPOS>MOLECULE
3R137
137   139    1
SMALL
USER_CHARGES


@<TRIPOS>ATOM
      1 CA         26.1065   -6.3413   -3.6447 C.3       0 UNK        -0.2020 
      2 C          26.2230   -5.7083   -2.2673 C.2       0 UNK         0.4855 
      3 O          25.3638   -5.9383   -1.4160 O.2       0 UNK        -0.5197 
      4 N          27.2869   -4.9262   -2.0365 N.am      1 UNK        -0.4892 
      5 CA         27.5916   -4.2913   -0.7444 C.3       1 UNK         0.0835 
      6 C6         29.0448   -3.7610   -0.6734 C.3       12 UNK        -0.0855 
      7 S7         30.2700   -5.0692   -1.0361 S.3       12 UNK        -0.2931 
      8 C8         31.6852   -4.1215   -1.6921 C.3       12 UNK         0.0378 
      9 C9         31.3207   -3.2570   -2.8932 C.ar      12 UNK        -0.0802 
     10 C10        31.5798   -1.8828   -2.8675 C.ar      12 UNK        -0.0944 
     11 C11        31.2310   -1.0700   -3.9498 C.ar      12 UNK        -0.0787 
     12 C12        30.5946   -1.6440   -5.0546 C.ar      12 UNK        -0.0862 
     13 C13        30.3472   -3.0188   -5.1034 C.ar      12 UNK        -0.0733 
     14 C14        30.7242   -3.8229   -4.0246 C.ar      12 UNK        -0.0832 
     15 C15        29.6882   -3.6336   -6.3297 C.3       12 UNK         0.0240 
     16 S16        28.0376   -4.3224   -5.9861 S.3       12 UNK        -0.2522 
     17 C17        27.1267   -2.9047   -5.2907 C.3       12 UNK        -0.0967 
     18 CA         26.5347   -1.9639   -6.3743 C.3       5 UNK         0.0660 
     19 N          25.2085   -1.4723   -6.0011 N.am      5 UNK        -0.4015 
     20 C          24.2968   -0.9931   -6.8588 C.2       4 UNK         0.4946 
     21 O          24.4375   -0.9963   -8.0814 O.2       4 UNK        -0.5353 
     22 CA         23.0182   -0.3851   -6.2507 C.3       4 UNK         0.0277 
     23 CB         21.9141   -1.4494   -6.1473 C.3       4 UNK        -0.1981 
     24 N          23.2334    0.2227   -4.9332 N.am      4 UNK        -0.4209 
     25 C          23.9992    1.3014   -4.7142 C.2       3 UNK         0.4942 
     26 O          24.5519    1.9352   -5.6107 O.2       3 UNK        -0.5208 
     27 CA         24.2376    1.7134   -3.2504 C.3       3 UNK         0.0250 
     28 CB         23.1698    2.7224   -2.7993 C.3       3 UNK        -0.1990 
     29 N          24.2896    0.5969   -2.2980 N.am      3 UNK        -0.4232 
     30 C          25.1039   -0.4655   -2.3762 C.2       2 UNK         0.4993 
     31 O          25.8897   -0.6651   -3.3088 O.2       2 UNK        -0.5286 
     32 CA         24.9769   -1.4949   -1.2473 C.3       2 UNK         0.0209 
     33 CB         23.6011   -2.1892   -1.2791 C.3       2 UNK        -0.1931 
     34 N          26.0222   -2.5060   -1.3811 N.am      2 UNK        -0.4546 
     35 C          26.5839   -3.1825   -0.3717 C.2       1 UNK         0.5154 
     36 O          26.3204   -2.9790    0.8148 O.2       1 UNK        -0.5181 
     37 C          27.4670   -0.7734   -6.6613 C.2       5 UNK         0.5014 
     38 O          28.1471   -0.7645   -7.6878 O.2       5 UNK        -0.5248 
     39 N          27.4541    0.2273   -5.7669 N.am      6 UNK        -0.4434 
     40 CA         28.2443    1.4603   -5.8705 C.3       6 UNK         0.0363 
     41 CB         28.0779    2.2789   -4.5811 C.3       6 UNK        -0.1936 
     42 C          27.9075    2.3224   -7.1023 C.2       6 UNK         0.5081 
     43 O          28.7680    3.0621   -7.5757 O.2       6 UNK        -0.5248 
     44 N          26.6700    2.2177   -7.6013 N.am      7 UNK        -0.4718 
     45 CA         26.2220    2.8328   -8.8506 C.3       7 UNK         0.0273 
     46 CB         24.6872    2.9228   -8.8350 C.3       7 UNK        -0.1935 
     47 C          26.6971    2.0754  -10.1053 C.2       7 UNK         0.5018 
     48 O          26.7326    2.6763  -11.1802 O.2       7 UNK        -0.5186 
     49 N          27.0172    0.7812   -9.9669 N.am      8 UNK        -0.4240 
     50 CA         27.4080   -0.1008  -11.0665 C.3       8 UNK         0.0235 
     51 CB         26.8063   -1.4991  -10.8407 C.3       8 UNK        -0.2000 
     52 C          28.9331   -0.1786  -11.2182 C.2       8 UNK         0.4941 
     53 O          29.4381    0.0122  -12.3259 O.2       8 UNK        -0.5273 
     54 N          29.6374   -0.4744  -10.1186 N.am      9 UNK        -0.4262 
     55 CA         31.0967   -0.5907  -10.0787 C.3       9 UNK         0.0264 
     56 CB         31.4849   -1.5819   -8.9696 C.3       9 UNK        -0.1955 
     57 C          31.7588    0.7713   -9.8237 C.2       9 UNK         0.5031 
     58 O          31.1124    1.6858   -9.3112 O.2       9 UNK        -0.5390 
     59 N          33.0550    0.8691  -10.1492 N.am      10 UNK        -0.4204 
     60 CA         33.8962    2.0184   -9.8004 C.3       10 UNK         0.0237 
     61 CB         35.1822    2.0057  -10.6449 C.3       10 UNK        -0.1985 
     62 C          34.2170    2.0437   -8.2954 C.2       10 UNK         0.4970 
     63 O          34.0303    3.0813   -7.6602 O.2       10 UNK        -0.4914 
     64 N          34.6750    0.8911   -7.7794 N.am      11 UNK        -0.4285 
     65 CA         34.9619    0.5612   -6.3687 C.3       11 UNK         0.1007 
     66 C          35.7976    1.5858   -5.5389 C.2       11 UNK         0.5703 
     67 N          36.6490    2.3893   -6.1649 N.am      11 UNK        -0.7361 
     68 O          35.7165    1.6256   -4.3132 O.2       11 UNK        -0.4986 
     69 C69        33.7338   -0.0439   -5.6280 C.3       12 UNK        -0.0947 
     70 S70        32.2928    1.0606   -5.4459 S.3       12 UNK        -0.2240 
     71 C71        31.5424    0.4246   -3.9080 C.3       12 UNK         0.0194 
     72 H72        25.6719   -7.3377   -3.5681 H         1 UNK         0.0906 
     73 H73        25.4648   -5.7386   -4.2865 H         1 UNK         0.0906 
     74 H74        27.0808   -6.4415   -4.1219 H         1 UNK         0.0906 
     75 H75        27.9806   -4.7970   -2.7596 H         1 UNK         0.3140 
     76 H76        27.4892   -5.0641    0.0212 H         1 UNK         0.1085 
     77 H77        29.1706   -2.9276   -1.3661 H         1 UNK         0.0836 
     78 H78        29.2605   -3.3651    0.3211 H         1 UNK         0.0836 
     79 H79        32.0977   -3.5128   -0.8859 H         1 UNK         0.0731 
     80 H80        32.4719   -4.8182   -1.9843 H         1 UNK         0.0731 
     81 H81        32.0546   -1.4433   -2.0008 H         1 UNK         0.1312 
     82 H82        30.3091   -1.0171   -5.8862 H         1 UNK         0.1406 
     83 H83        30.5332   -4.8872   -4.0565 H         1 UNK         0.1631 
     84 H84        30.3268   -4.4297   -6.7146 H         1 UNK         0.0717 
     85 H85        29.6005   -2.9043   -7.1338 H         1 UNK         0.0717 
     86 H86        26.3173   -3.3425   -4.7051 H         1 UNK         0.0934 
     87 H87        27.7409   -2.3745   -4.5600 H         1 UNK         0.0934 
     88 H88        26.4213   -2.5257   -7.3045 H         1 UNK         0.0739 
     89 H89        25.0496   -1.3540   -5.0075 H         1 UNK         0.3093 
     90 H90        22.6759    0.3996   -6.9292 H         1 UNK         0.0818 
     91 H91        20.9761   -1.0163   -5.7993 H         1 UNK         0.0819 
     92 H92        21.7176   -1.9022   -7.1203 H         1 UNK         0.0819 
     93 H93        22.1883   -2.2537   -5.4634 H         1 UNK         0.0819 
     94 H94        22.8036   -0.2307   -4.1402 H         1 UNK         0.3041 
     95 H95        25.2078    2.2101   -3.2084 H         1 UNK         0.0784 
     96 H96        23.1268    3.5750   -3.4789 H         1 UNK         0.0793 
     97 H97        22.1751    2.2754   -2.7741 H         1 UNK         0.0793 
     98 H98        23.3878    3.1153   -1.8060 H         1 UNK         0.0793 
     99 H99        23.6711    0.6673   -1.5024 H         1 UNK         0.3024 
    100 H100       25.1012   -0.9644   -0.3002 H         1 UNK         0.1171 
    101 H101       22.7867   -1.4766   -1.1446 H         1 UNK         0.0786 
    102 H102       23.4336   -2.7065   -2.2248 H         1 UNK         0.0786 
    103 H103       23.5128   -2.9262   -0.4804 H         1 UNK         0.0786 
    104 H104       26.3437   -2.6680   -2.3252 H         1 UNK         0.2977 
    105 H105       26.8782    0.1220   -4.9377 H         1 UNK         0.3127 
    106 H106       29.2914    1.1679   -5.9606 H         1 UNK         0.0770 
    107 H107       27.0762    2.7003   -4.5032 H         1 UNK         0.0814 
    108 H108       28.7812    3.1123   -4.5612 H         1 UNK         0.0814 
    109 H109       28.2612    1.6754   -3.6920 H         1 UNK         0.0814 
    110 H110       25.9781    1.7008   -7.0690 H         1 UNK         0.2983 
    111 H111       26.6245    3.8467   -8.9062 H         1 UNK         0.0947 
    112 H112       24.3126    3.3965   -9.7435 H         1 UNK         0.0806 
    113 H113       24.3337    3.5156   -7.9910 H         1 UNK         0.0806 
    114 H114       24.2274    1.9359   -8.7660 H         1 UNK         0.0806 
    115 H115       27.0309    0.3790   -9.0372 H         1 UNK         0.3000 
    116 H116       27.0001    0.2828  -12.0044 H         1 UNK         0.0850 
    117 H117       27.0653   -2.1717  -11.6594 H         1 UNK         0.0810 
    118 H118       25.7181   -1.4556  -10.7876 H         1 UNK         0.0810 
    119 H119       27.1634   -1.9563   -9.9175 H         1 UNK         0.0810 
    120 H120       29.1470   -0.5606   -9.2302 H         1 UNK         0.3040 
    121 H121       31.4540   -0.9813  -11.0341 H         1 UNK         0.0766 
    122 H122       32.5619   -1.7512   -8.9470 H         1 UNK         0.0812 
    123 H123       31.0096   -2.5512   -9.1197 H         1 UNK         0.0812 
    124 H124       31.1961   -1.2093   -7.9874 H         1 UNK         0.0812 
    125 H125       33.5103    0.0809  -10.5872 H         1 UNK         0.3205 
    126 H126       33.3476    2.9323  -10.0401 H         1 UNK         0.0754 
    127 H127       35.8166    2.8586  -10.3995 H         1 UNK         0.0769 
    128 H128       34.9553    2.0702  -11.7094 H         1 UNK         0.0769 
    129 H129       35.7724    1.1030  -10.4832 H         1 UNK         0.0769 
    130 H130       34.8154    0.1258   -8.4205 H         1 UNK         0.2981 
    131 H131       35.6614   -0.2712   -6.4535 H         1 UNK         0.0541 
    132 H132       36.7243    2.3717   -7.1691 H         1 UNK         0.3459 
    133 H133       37.1983    3.0408   -5.6272 H         1 UNK         0.3459 
    134 H134       34.0318   -0.4056   -4.6423 H         1 UNK         0.0612 
    135 H135       33.3919   -0.9293   -6.1660 H         1 UNK         0.0612 
    136 H136       30.6205    0.9716   -3.7129 H         1 UNK         0.0624 
    137 H137       32.2176    0.6532   -3.0820 H         1 UNK         0.0624 
@<TRIPOS>BOND
     1    1    2 1    
     2    1   72 1    
     3    1   73 1    
     4    1   74 1    
     5    2    3 2    
     6    2    4 am   BACKBONE|DICT|INTERRES
     7    4    5 1    
     8    4   75 1    
     9    5    6 1    
    10    5   35 1    
    11    5   76 1    
    12    6    7 1    
    13    6   77 1    
    14    6   78 1    
    15    7    8 1    
    16    8    9 1    
    17    8   79 1    
    18    8   80 1    
    19    9   10 ar   
    20    9   14 ar   
    21   10   11 ar   
    22   10   81 1    
    23   11   12 ar   
    24   11   71 1    
    25   12   13 ar   
    26   12   82 1    
    27   13   14 ar   
    28   13   15 1    
    29   14   83 1    
    30   15   16 1    
    31   15   84 1    
    32   15   85 1    
    33   16   17 1    
    34   17   18 1    
    35   17   86 1    
    36   17   87 1    
    37   18   19 1    
    38   18   37 1    
    39   18   88 1    
    40   19   20 am   BACKBONE|DICT|INTERRES
    41   19   89 1    
    42   20   21 2    
    43   20   22 1    
    44   22   23 1    
    45   22   24 1    
    46   22   90 1    
    47   23   91 1    
    48   23   92 1    
    49   23   93 1    
    50   24   25 am   BACKBONE|DICT|INTERRES
    51   24   94 1    
    52   25   26 2    
    53   25   27 1    
    54   27   28 1    
    55   27   29 1    
    56   27   95 1    
    57   28   96 1    
    58   28   97 1    
    59   28   98 1    
    60   29   30 am   BACKBONE|DICT|INTERRES
    61   29   99 1    
    62   30   31 2    
    63   30   32 1    
    64   32   33 1    
    65   32   34 1    
    66   32  100 1    
    67   33  101 1    
    68   33  102 1    
    69   33  103 1    
    70   34   35 am   BACKBONE|DICT|INTERRES
    71   34  104 1    
    72   35   36 2    
    73   37   38 2    
    74   37   39 am   BACKBONE|DICT|INTERRES
    75   39   40 1    
    76   39  105 1    
    77   40   41 1    
    78   40   42 1    
    79   40  106 1    
    80   41  107 1    
    81   41  108 1    
    82   41  109 1    
    83   42   43 2    
    84   42   44 am   BACKBONE|DICT|INTERRES
    85   44   45 1    
    86   44  110 1    
    87   45   46 1    
    88   45   47 1    
    89   45  111 1    
    90   46  112 1    
    91   46  113 1    
    92   46  114 1    
    93   47   48 2    
    94   47   49 am   BACKBONE|DICT|INTERRES
    95   49   50 1    
    96   49  115 1    
    97   50   51 1    
    98   50   52 1    
    99   50  116 1    
   100   51  117 1    
   101   51  118 1    
   102   51  119 1    
   103   52   53 2    
   104   52   54 am   BACKBONE|DICT|INTERRES
   105   54   55 1    
   106   54  120 1    
   107   55   56 1    
   108   55   57 1    
   109   55  121 1    
   110   56  122 1    
   111   56  123 1    
   112   56  124 1    
   113   57   58 2    
   114   57   59 am   BACKBONE|DICT|INTERRES
   115   59   60 1    
   116   59  125 1    
   117   60   61 1    
   118   60   62 1    
   119   60  126 1    
   120   61  127 1    
   121   61  128 1    
   122   61  129 1    
   123   62   63 2    
   124   62   64 am   BACKBONE|DICT|INTERRES
   125   64   65 1    
   126   64  130 1    
   127   65   66 1    
   128   65   69 1    
   129   65  131 1    
   130   66   67 am   BACKBONE|DICT|INTERRES
   131   66   68 2    
   132   67  132 1    
   133   67  133 1    
   134   69   70 1    
   135   69  134 1    
   136   69  135 1    
   137   70   71 1    
   138   71  136 1    
   139   71  137 1    
@<TRIPOS>SUBSTRUCTURE
     1 UNK         1 GROUP             0       ****    0 ROOT    
