@<TRIPOS>MOLECULE
3R137
137   139    1
SMALL
USER_CHARGES


@<TRIPOS>ATOM
      1 CA         27.5127   -4.9874   -0.0243 C.3       0 UNK        -0.2020 
      2 C          27.1362   -3.5677    0.3710 C.2       0 UNK         0.4855 
      3 O          26.3743   -3.3756    1.3183 O.2       0 UNK        -0.5197 
      4 N          27.6579   -2.5713   -0.3564 N.am      1 UNK        -0.4892 
      5 CA         27.3957   -1.1403   -0.1375 C.3       1 UNK         0.0835 
      6 C6         28.5224   -0.2478   -0.7220 C.3       12 UNK        -0.0855 
      7 S7         30.1208   -0.5376    0.1160 S.3       12 UNK        -0.2931 
      8 C8         31.3394   -0.1169   -1.1852 C.3       12 UNK         0.0378 
      9 C9         31.4615   -1.1127   -2.3424 C.ar      12 UNK        -0.0802 
     10 C10        32.1033   -0.7025   -3.5166 C.ar      12 UNK        -0.0944 
     11 C11        32.2209   -1.5657   -4.6113 C.ar      12 UNK        -0.0787 
     12 C12        31.6769   -2.8506   -4.5347 C.ar      12 UNK        -0.0862 
     13 C13        31.0211   -3.2709   -3.3761 C.ar      12 UNK        -0.0733 
     14 C14        30.9565   -2.4164   -2.2715 C.ar      12 UNK        -0.0832 
     15 C15        30.3363   -4.6295   -3.3272 C.3       12 UNK         0.0240 
     16 S16        28.8042   -4.6822   -4.3266 S.3       12 UNK        -0.2522 
     17 C17        27.9283   -3.1405   -3.8797 C.3       12 UNK        -0.0967 
     18 CA         27.7284   -2.2276   -5.1184 C.3       5 UNK         0.0660 
     19 N          26.5641   -2.6436   -5.9026 N.am      5 UNK        -0.4015 
     20 C          26.4222   -2.4383   -7.2193 C.2       4 UNK         0.4946 
     21 O          27.2845   -1.9199   -7.9256 O.2       4 UNK        -0.5353 
     22 CA         25.0844   -2.8489   -7.8642 C.3       4 UNK         0.0277 
     23 CB         25.2017   -4.2451   -8.4965 C.3       4 UNK        -0.1981 
     24 N          23.9411   -2.8269   -6.9456 N.am      4 UNK        -0.4209 
     25 C          23.4996   -1.7419   -6.2947 C.2       3 UNK         0.4942 
     26 O          24.0112   -0.6280   -6.4128 O.2       3 UNK        -0.5208 
     27 CA         22.3349   -1.9244   -5.3012 C.3       3 UNK         0.0250 
     28 CB         21.7417   -3.3524   -5.2727 C.3       3 UNK        -0.1990 
     29 N          22.7105   -1.5052   -3.9437 N.am      3 UNK        -0.4232 
     30 C          23.7548   -1.9513   -3.2298 C.2       2 UNK         0.4993 
     31 O          24.5640   -2.7889   -3.6386 O.2       2 UNK        -0.5286 
     32 CA         23.9074   -1.3814   -1.8151 C.3       2 UNK         0.0209 
     33 CB         22.9578   -2.0964   -0.8381 C.3       2 UNK        -0.1931 
     34 N          25.2841   -1.5679   -1.3599 N.am      2 UNK        -0.4546 
     35 C          25.9954   -0.6987   -0.6297 C.2       1 UNK         0.5154 
     36 O          25.5755    0.4155   -0.3139 O.2       1 UNK        -0.5181 
     37 C          27.6714   -0.7310   -4.7360 C.2       5 UNK         0.5014 
     38 O          28.7115   -0.1771   -4.3860 O.2       5 UNK        -0.5248 
     39 N          26.4976   -0.0814   -4.8086 N.am      6 UNK        -0.4434 
     40 CA         26.3611    1.3595   -4.5580 C.3       6 UNK         0.0363 
     41 CB         24.9398    1.6806   -4.0712 C.3       6 UNK        -0.1936 
     42 C          26.7204    2.2149   -5.7856 C.2       6 UNK         0.5081 
     43 O          26.9399    3.4178   -5.6346 O.2       6 UNK        -0.5248 
     44 N          26.7780    1.6011   -6.9754 N.am      7 UNK        -0.4718 
     45 CA         27.1998    2.2306   -8.2252 C.3       7 UNK         0.0273 
     46 CB         26.6712    1.3939   -9.4050 C.3       7 UNK        -0.1935 
     47 C          28.7310    2.3756   -8.2503 C.2       7 UNK         0.5018 
     48 O          29.4130    1.5292   -8.8272 O.2       7 UNK        -0.5186 
     49 N          29.2392    3.4232   -7.5856 N.am      8 UNK        -0.4240 
     50 CA         30.6634    3.7292   -7.4088 C.3       8 UNK         0.0235 
     51 CB         30.8031    5.0832   -6.6953 C.3       8 UNK        -0.2000 
     52 C          31.4591    3.7324   -8.7264 C.2       8 UNK         0.4941 
     53 O          30.9599    4.2213   -9.7434 O.2       8 UNK        -0.5273 
     54 N          32.6693    3.1588   -8.6826 N.am      9 UNK        -0.4262 
     55 CA         33.5959    2.8866   -9.7922 C.3       9 UNK         0.0264 
     56 CB         34.0094    4.1706  -10.5385 C.3       9 UNK        -0.1955 
     57 C          33.0963    1.8023  -10.7653 C.2       9 UNK         0.5031 
     58 O          33.8619    0.8917  -11.0860 O.2       9 UNK        -0.5390 
     59 N          31.8250    1.8801  -11.1837 N.am      10 UNK        -0.4204 
     60 CA         31.1409    0.8858  -12.0203 C.3       10 UNK         0.0237 
     61 CB         29.7450    1.4053  -12.3988 C.3       10 UNK        -0.1985 
     62 C          31.0507   -0.5045  -11.3621 C.2       10 UNK         0.4970 
     63 O          31.0830   -1.5110  -12.0710 O.2       10 UNK        -0.4914 
     64 N          30.9847   -0.5294  -10.0259 N.am      11 UNK        -0.4285 
     65 CA         31.1081   -1.7128   -9.1669 C.3       11 UNK         0.1007 
     66 C          32.4548   -2.4908   -9.2755 C.2       11 UNK         0.5703 
     67 N          33.5120   -1.9338   -9.8580 N.am      11 UNK        -0.7361 
     68 O          32.5380   -3.6297   -8.8223 O.2       11 UNK        -0.4986 
     69 C69        30.7666   -1.3650   -7.6929 C.3       12 UNK        -0.0947 
     70 S70        31.8608   -0.1015   -6.9463 S.3       12 UNK        -0.2240 
     71 C71        32.9356   -1.1068   -5.8744 C.3       12 UNK         0.0194 
     72 H72        28.1876   -5.4168    0.7157 H         1 UNK         0.0906 
     73 H73        26.6211   -5.6121   -0.0746 H         1 UNK         0.0906 
     74 H74        28.0011   -5.0249   -0.9973 H         1 UNK         0.0906 
     75 H75        28.3026   -2.7867   -1.0995 H         1 UNK         0.3140 
     76 H76        27.3816   -0.9723    0.9422 H         1 UNK         0.1085 
     77 H77        28.6327   -0.4202   -1.7923 H         1 UNK         0.0836 
     78 H78        28.2800    0.8107   -0.6076 H         1 UNK         0.0836 
     79 H79        32.3190   -0.0229   -0.7148 H         1 UNK         0.0731 
     80 H80        31.0912    0.8700   -1.5796 H         1 UNK         0.0731 
     81 H81        32.5072    0.2984   -3.5852 H         1 UNK         0.1312 
     82 H82        31.7415   -3.5181   -5.3832 H         1 UNK         0.1406 
     83 H83        30.4761   -2.7628   -1.3690 H         1 UNK         0.1631 
     84 H84        30.0988   -4.9045   -2.2989 H         1 UNK         0.0717 
     85 H85        31.0222   -5.3949   -3.6931 H         1 UNK         0.0717 
     86 H86        26.9769   -3.4106   -3.4246 H         1 UNK         0.0934 
     87 H87        28.4759   -2.6217   -3.0978 H         1 UNK         0.0934 
     88 H88        28.6166   -2.3216   -5.7472 H         1 UNK         0.0739 
     89 H89        25.7925   -3.0374   -5.3751 H         1 UNK         0.3093 
     90 H90        24.8781   -2.1293   -8.6595 H         1 UNK         0.0818 
     91 H91        24.2971   -4.5121   -9.0433 H         1 UNK         0.0819 
     92 H92        26.0293   -4.2827   -9.2066 H         1 UNK         0.0819 
     93 H93        25.3824   -5.0152   -7.7455 H         1 UNK         0.0819 
     94 H94        23.4787   -3.7078   -6.7726 H         1 UNK         0.3041 
     95 H95        21.5482   -1.2448   -5.6324 H         1 UNK         0.0784 
     96 H96        21.3810   -3.6539   -6.2571 H         1 UNK         0.0793 
     97 H97        22.4659   -4.0955   -4.9360 H         1 UNK         0.0793 
     98 H98        20.8878   -3.4032   -4.5969 H         1 UNK         0.0793 
     99 H99        22.1140   -0.8011   -3.5316 H         1 UNK         0.3024 
    100 H100       23.6570   -0.3196   -1.8381 H         1 UNK         0.1171 
    101 H101       23.0522   -1.6936    0.1706 H         1 UNK         0.0786 
    102 H102       21.9160   -1.9755   -1.1378 H         1 UNK         0.0786 
    103 H103       23.1624   -3.1669   -0.7892 H         1 UNK         0.0786 
    104 H104       25.7056   -2.4457   -1.6295 H         1 UNK         0.2977 
    105 H105       25.6766   -0.5578   -5.1663 H         1 UNK         0.3127 
    106 H106       27.0485    1.6482   -3.7596 H         1 UNK         0.0770 
    107 H107       24.1783    1.3749   -4.7879 H         1 UNK         0.0814 
    108 H108       24.8171    2.7523   -3.9080 H         1 UNK         0.0814 
    109 H109       24.7350    1.1935   -3.1210 H         1 UNK         0.0814 
    110 H110       26.6101    0.6055   -7.0093 H         1 UNK         0.2983 
    111 H111       26.7575    3.2270   -8.2947 H         1 UNK         0.0947 
    112 H112       26.9415    1.8519  -10.3569 H         1 UNK         0.0806 
    113 H113       25.5843    1.3147   -9.3800 H         1 UNK         0.0806 
    114 H114       27.0799    0.3824   -9.4021 H         1 UNK         0.0806 
    115 H115       28.5862    4.0170   -7.0909 H         1 UNK         0.3000 
    116 H116       31.0700    2.9515   -6.7590 H         1 UNK         0.0850 
    117 H117       31.8517    5.3281   -6.5202 H         1 UNK         0.0810 
    118 H118       30.3075    5.0746   -5.7242 H         1 UNK         0.0810 
    119 H119       30.3733    5.8937   -7.2856 H         1 UNK         0.0810 
    120 H120       32.9611    2.7704   -7.7957 H         1 UNK         0.3040 
    121 H121       34.4957    2.4863   -9.3218 H         1 UNK         0.0766 
    122 H122       33.1770    4.6205  -11.0800 H         1 UNK         0.0812 
    123 H123       34.7894    3.9569  -11.2704 H         1 UNK         0.0812 
    124 H124       34.4058    4.9181   -9.8515 H         1 UNK         0.0812 
    125 H125       31.2721    2.6610  -10.8376 H         1 UNK         0.3205 
    126 H126       31.7239    0.7736  -12.9366 H         1 UNK         0.0754 
    127 H127       29.2233    0.6930  -13.0395 H         1 UNK         0.0769 
    128 H128       29.8064    2.3474  -12.9438 H         1 UNK         0.0769 
    129 H129       29.1240    1.5676  -11.5179 H         1 UNK         0.0769 
    130 H130       30.8272    0.3453   -9.5349 H         1 UNK         0.2981 
    131 H131       30.3426   -2.4100   -9.5118 H         1 UNK         0.0541 
    132 H132       33.4662   -0.9971  -10.2404 H         1 UNK         0.3459 
    133 H133       34.3700   -2.4575   -9.9200 H         1 UNK         0.3459 
    134 H134       29.7506   -0.9724   -7.6421 H         1 UNK         0.0612 
    135 H135       30.7541   -2.2666   -7.0823 H         1 UNK         0.0612 
    136 H136       33.3185   -1.9613   -6.4339 H         1 UNK         0.0624 
    137 H137       33.8068   -0.5106   -5.6000 H         1 UNK         0.0624 
@<TRIPOS>BOND
     1    1    2 1    
     2    1   72 1    
     3    1   73 1    
     4    1   74 1    
     5    2    3 2    
     6    2    4 am   BACKBONE|DICT|INTERRES
     7    4    5 1    
     8    4   75 1    
     9    5    6 1    
    10    5   35 1    
    11    5   76 1    
    12    6    7 1    
    13    6   77 1    
    14    6   78 1    
    15    7    8 1    
    16    8    9 1    
    17    8   79 1    
    18    8   80 1    
    19    9   10 ar   
    20    9   14 ar   
    21   10   11 ar   
    22   10   81 1    
    23   11   12 ar   
    24   11   71 1    
    25   12   13 ar   
    26   12   82 1    
    27   13   14 ar   
    28   13   15 1    
    29   14   83 1    
    30   15   16 1    
    31   15   84 1    
    32   15   85 1    
    33   16   17 1    
    34   17   18 1    
    35   17   86 1    
    36   17   87 1    
    37   18   19 1    
    38   18   37 1    
    39   18   88 1    
    40   19   20 am   BACKBONE|DICT|INTERRES
    41   19   89 1    
    42   20   21 2    
    43   20   22 1    
    44   22   23 1    
    45   22   24 1    
    46   22   90 1    
    47   23   91 1    
    48   23   92 1    
    49   23   93 1    
    50   24   25 am   BACKBONE|DICT|INTERRES
    51   24   94 1    
    52   25   26 2    
    53   25   27 1    
    54   27   28 1    
    55   27   29 1    
    56   27   95 1    
    57   28   96 1    
    58   28   97 1    
    59   28   98 1    
    60   29   30 am   BACKBONE|DICT|INTERRES
    61   29   99 1    
    62   30   31 2    
    63   30   32 1    
    64   32   33 1    
    65   32   34 1    
    66   32  100 1    
    67   33  101 1    
    68   33  102 1    
    69   33  103 1    
    70   34   35 am   BACKBONE|DICT|INTERRES
    71   34  104 1    
    72   35   36 2    
    73   37   38 2    
    74   37   39 am   BACKBONE|DICT|INTERRES
    75   39   40 1    
    76   39  105 1    
    77   40   41 1    
    78   40   42 1    
    79   40  106 1    
    80   41  107 1    
    81   41  108 1    
    82   41  109 1    
    83   42   43 2    
    84   42   44 am   BACKBONE|DICT|INTERRES
    85   44   45 1    
    86   44  110 1    
    87   45   46 1    
    88   45   47 1    
    89   45  111 1    
    90   46  112 1    
    91   46  113 1    
    92   46  114 1    
    93   47   48 2    
    94   47   49 am   BACKBONE|DICT|INTERRES
    95   49   50 1    
    96   49  115 1    
    97   50   51 1    
    98   50   52 1    
    99   50  116 1    
   100   51  117 1    
   101   51  118 1    
   102   51  119 1    
   103   52   53 2    
   104   52   54 am   BACKBONE|DICT|INTERRES
   105   54   55 1    
   106   54  120 1    
   107   55   56 1    
   108   55   57 1    
   109   55  121 1    
   110   56  122 1    
   111   56  123 1    
   112   56  124 1    
   113   57   58 2    
   114   57   59 am   BACKBONE|DICT|INTERRES
   115   59   60 1    
   116   59  125 1    
   117   60   61 1    
   118   60   62 1    
   119   60  126 1    
   120   61  127 1    
   121   61  128 1    
   122   61  129 1    
   123   62   63 2    
   124   62   64 am   BACKBONE|DICT|INTERRES
   125   64   65 1    
   126   64  130 1    
   127   65   66 1    
   128   65   69 1    
   129   65  131 1    
   130   66   67 am   BACKBONE|DICT|INTERRES
   131   66   68 2    
   132   67  132 1    
   133   67  133 1    
   134   69   70 1    
   135   69  134 1    
   136   69  135 1    
   137   70   71 1    
   138   71  136 1    
   139   71  137 1    
@<TRIPOS>SUBSTRUCTURE
     1 UNK         1 GROUP             0       ****    0 ROOT    
