@<TRIPOS>MOLECULE
3R137
137   139    1
SMALL
USER_CHARGES


@<TRIPOS>ATOM
      1 CA         24.8932   -6.7485    0.0232 C.3       0 UNK        -0.2020 
      2 C          25.8005   -5.5346    0.1564 C.2       0 UNK         0.4855 
      3 O          25.3602   -4.4922    0.6418 O.2       0 UNK        -0.5197 
      4 N          27.0652   -5.6608   -0.2662 N.am      1 UNK        -0.4892 
      5 CA         28.0452   -4.5706   -0.3010 C.3       1 UNK         0.0835 
      6 C6         29.4800   -5.1167   -0.5047 C.3       12 UNK        -0.0855 
      7 S7         30.7612   -3.9591    0.0844 S.3       12 UNK        -0.2931 
      8 C8         31.8202   -3.7734   -1.3873 C.3       12 UNK         0.0378 
      9 C9         31.3004   -2.7101   -2.3449 C.ar      12 UNK        -0.0802 
     10 C10        31.5003   -1.3575   -2.0518 C.ar      12 UNK        -0.0944 
     11 C11        31.0659   -0.3633   -2.9330 C.ar      12 UNK        -0.0787 
     12 C12        30.4188   -0.7361   -4.1152 C.ar      12 UNK        -0.0862 
     13 C13        30.2305   -2.0839   -4.4315 C.ar      12 UNK        -0.0733 
     14 C14        30.6635   -3.0690   -3.5379 C.ar      12 UNK        -0.0832 
     15 C15        29.5883   -2.4635   -5.7558 C.3       12 UNK         0.0240 
     16 S16        27.7784   -2.5503   -5.6132 S.3       12 UNK        -0.2522 
     17 C17        27.2849   -2.4037   -7.3669 C.3       12 UNK        -0.0967 
     18 CA         26.6743   -1.0238   -7.7174 C.3       5 UNK         0.0660 
     19 N          25.4889   -0.7373   -6.9010 N.am      5 UNK        -0.4015 
     20 C          24.7092    0.3508   -6.9412 C.2       4 UNK         0.4946 
     21 O          24.9097    1.3008   -7.6994 O.2       4 UNK        -0.5353 
     22 CA         23.5384    0.4321   -5.9406 C.3       4 UNK         0.0277 
     23 CB         22.1931    0.1811   -6.6494 C.3       4 UNK        -0.1981 
     24 N          23.6753   -0.4054   -4.7344 N.am      4 UNK        -0.4209 
     25 C          23.6683   -1.7422   -4.6285 C.2       3 UNK         0.4942 
     26 O          23.5902   -2.5047   -5.5925 O.2       3 UNK        -0.5208 
     27 CA         23.8599   -2.3114   -3.2129 C.3       3 UNK         0.0250 
     28 CB         23.4638   -3.7962   -3.1130 C.3       3 UNK        -0.1990 
     29 N          25.2509   -2.1714   -2.7871 N.am      3 UNK        -0.4232 
     30 C          25.8333   -1.0509   -2.3481 C.2       2 UNK         0.4993 
     31 O          25.2311    0.0210   -2.2513 O.2       2 UNK        -0.5286 
     32 CA         27.3248   -1.1435   -1.9543 C.3       2 UNK         0.0209 
     33 CB         27.8347    0.1541   -1.3001 C.3       2 UNK        -0.1931 
     34 N          27.6345   -2.2659   -1.0598 N.am      2 UNK        -0.4546 
     35 C          27.6632   -3.5614   -1.4002 C.2       1 UNK         0.5154 
     36 O          27.3889   -3.9811   -2.5270 O.2       1 UNK        -0.5181 
     37 C          27.7444    0.0886   -7.6986 C.2       5 UNK         0.5014 
     38 O          28.4491    0.2580   -8.6937 O.2       5 UNK        -0.5248 
     39 N          27.8162    0.8578   -6.6024 N.am      6 UNK        -0.4434 
     40 CA         28.6671    2.0388   -6.4351 C.3       6 UNK         0.0363 
     41 CB         28.4446    2.6164   -5.0280 C.3       6 UNK        -0.1936 
     42 C          28.4459    3.1334   -7.4988 C.2       6 UNK         0.5081 
     43 O          29.3806    3.8775   -7.7926 O.2       6 UNK        -0.5248 
     44 N          27.2331    3.2042   -8.0653 N.am      7 UNK        -0.4718 
     45 CA         26.8604    4.1434   -9.1253 C.3       7 UNK         0.0273 
     46 CB         25.4156    4.6090   -8.8724 C.3       7 UNK        -0.1935 
     47 C          26.9955    3.5461  -10.5402 C.2       7 UNK         0.5018 
     48 O          26.7329    4.2643  -11.5064 O.2       7 UNK        -0.5186 
     49 N          27.3672    2.2630  -10.6535 N.am      8 UNK        -0.4240 
     50 CA         27.4412    1.5199  -11.9114 C.3       8 UNK         0.0235 
     51 CB         26.3280    0.4527  -11.9374 C.3       8 UNK        -0.2000 
     52 C          28.8473    0.9315  -12.0861 C.2       8 UNK         0.4941 
     53 O          29.6880    1.5576  -12.7322 O.2       8 UNK        -0.5273 
     54 N          29.0787   -0.2563  -11.5107 N.am      9 UNK        -0.4262 
     55 CA         30.3516   -0.9834  -11.5340 C.3       9 UNK         0.0264 
     56 CB         30.1161   -2.4138  -11.0210 C.3       9 UNK        -0.1955 
     57 C          31.4734   -0.3071  -10.7233 C.2       9 UNK         0.5031 
     58 O          32.6445   -0.5385  -11.0289 O.2       9 UNK        -0.5390 
     59 N          31.0895    0.5032   -9.7256 N.am      10 UNK        -0.4204 
     60 CA         31.9221    1.2217   -8.7550 C.3       10 UNK         0.0237 
     61 CB         33.0199    2.0660   -9.4396 C.3       10 UNK        -0.1985 
     62 C          32.4835    0.2980   -7.6594 C.2       10 UNK         0.4970 
     63 O          32.3357   -0.9243   -7.7231 O.2       10 UNK        -0.4914 
     64 N          33.0878    0.9219   -6.6432 N.am      11 UNK        -0.4285 
     65 CA         33.6138    0.2599   -5.4376 C.3       11 UNK         0.1007 
     66 C          34.9949   -0.4330   -5.6241 C.2       11 UNK         0.5703 
     67 N          35.6599   -0.3004   -6.7659 N.am      11 UNK        -0.7361 
     68 O          35.4710   -1.1105   -4.7165 O.2       11 UNK        -0.4986 
     69 C69        33.6232    1.2219   -4.2172 C.3       12 UNK        -0.0947 
     70 S70        32.0241    2.0671   -3.9567 S.3       12 UNK        -0.2240 
     71 C71        31.2931    1.1063   -2.5915 C.3       12 UNK         0.0194 
     72 H72        25.4163   -7.6051   -0.4015 H         1 UNK         0.0906 
     73 H73        24.5073   -7.0376    1.0003 H         1 UNK         0.0906 
     74 H74        24.0469   -6.5142   -0.6220 H         1 UNK         0.0906 
     75 H75        27.3610   -6.5294   -0.6889 H         1 UNK         0.3140 
     76 H76        27.9997   -4.0697    0.6691 H         1 UNK         0.1085 
     77 H77        29.6115   -6.0350    0.0703 H         1 UNK         0.0836 
     78 H78        29.6550   -5.3955   -1.5459 H         1 UNK         0.0836 
     79 H79        32.8215   -3.4918   -1.0577 H         1 UNK         0.0731 
     80 H80        31.9335   -4.7345   -1.8912 H         1 UNK         0.0731 
     81 H81        31.9995   -1.0820   -1.1328 H         1 UNK         0.1312 
     82 H82        30.0857    0.0235   -4.8065 H         1 UNK         0.1406 
     83 H83        30.5129   -4.1126   -3.7781 H         1 UNK         0.1631 
     84 H84        29.9695   -3.4245   -6.1041 H         1 UNK         0.0717 
     85 H85        29.8670   -1.7310   -6.5152 H         1 UNK         0.0717 
     86 H86        28.1311   -2.6324   -8.0178 H         1 UNK         0.0934 
     87 H87        26.5507   -3.1856   -7.5679 H         1 UNK         0.0934 
     88 H88        26.3175   -1.0781   -8.7472 H         1 UNK         0.0739 
     89 H89        25.1878   -1.4866   -6.2877 H         1 UNK         0.3093 
     90 H90        23.5281    1.4614   -5.5784 H         1 UNK         0.0818 
     91 H91        21.3540    0.3111   -5.9660 H         1 UNK         0.0819 
     92 H92        22.0513    0.8826   -7.4727 H         1 UNK         0.0819 
     93 H93        22.1326   -0.8235   -7.0689 H         1 UNK         0.0819 
     94 H94        23.8640    0.1047   -3.8767 H         1 UNK         0.3041 
     95 H95        23.2190   -1.7464   -2.5324 H         1 UNK         0.0784 
     96 H96        22.4318   -3.9479   -3.4322 H         1 UNK         0.0793 
     97 H97        24.0969   -4.4274   -3.7383 H         1 UNK         0.0793 
     98 H98        23.5431   -4.1573   -2.0872 H         1 UNK         0.0793 
     99 H99        25.8443   -2.9947   -2.8684 H         1 UNK         0.3024 
    100 H100       27.8834   -1.2926   -2.8796 H         1 UNK         0.1171 
    101 H101       28.8854    0.0732   -1.0237 H         1 UNK         0.0786 
    102 H102       27.7422    0.9997   -1.9827 H         1 UNK         0.0786 
    103 H103       27.2719    0.3983   -0.3982 H         1 UNK         0.0786 
    104 H104       27.8478   -2.0192   -0.1043 H         1 UNK         0.2977 
    105 H105       27.1915    0.6403   -5.8405 H         1 UNK         0.3127 
    106 H106       29.7041    1.7089   -6.5097 H         1 UNK         0.0770 
    107 H107       27.4215    2.9701   -4.8938 H         1 UNK         0.0814 
    108 H108       29.1086    3.4628   -4.8465 H         1 UNK         0.0814 
    109 H109       28.6480    1.8786   -4.2526 H         1 UNK         0.0814 
    110 H110       26.5158    2.5391   -7.7882 H         1 UNK         0.2983 
    111 H111       27.5087    5.0217   -9.0861 H         1 UNK         0.0947 
    112 H112       25.1085    5.3563   -9.6052 H         1 UNK         0.0806 
    113 H113       25.3119    5.0634   -7.8870 H         1 UNK         0.0806 
    114 H114       24.7087    3.7806   -8.9356 H         1 UNK         0.0806 
    115 H115       27.6329    1.7566   -9.8160 H         1 UNK         0.3000 
    116 H116       27.2790    2.1844  -12.7628 H         1 UNK         0.0850 
    117 H117       26.4113   -0.1823  -12.8207 H         1 UNK         0.0810 
    118 H118       25.3443    0.9214  -11.9717 H         1 UNK         0.0810 
    119 H119       26.3489   -0.1928  -11.0595 H         1 UNK         0.0810 
    120 H120       28.3407   -0.6658  -10.9568 H         1 UNK         0.3040 
    121 H121       30.6857   -1.0398  -12.5721 H         1 UNK         0.0766 
    122 H122       29.7757   -2.4180   -9.9847 H         1 UNK         0.0812 
    123 H123       31.0365   -2.9982  -11.0620 H         1 UNK         0.0812 
    124 H124       29.3741   -2.9375  -11.6239 H         1 UNK         0.0812 
    125 H125       30.0932    0.5147   -9.5159 H         1 UNK         0.3205 
    126 H126       31.2442    1.9161   -8.2605 H         1 UNK         0.0754 
    127 H127       33.4700    2.7715   -8.7407 H         1 UNK         0.0769 
    128 H128       32.6113    2.6513  -10.2636 H         1 UNK         0.0769 
    129 H129       33.8260    1.4476   -9.8353 H         1 UNK         0.0769 
    130 H130       33.1679    1.9276   -6.6565 H         1 UNK         0.2981 
    131 H131       32.9311   -0.5549   -5.1950 H         1 UNK         0.0541 
    132 H132       35.2749    0.2430   -7.5210 H         1 UNK         0.3459 
    133 H133       36.5515   -0.7577   -6.8740 H         1 UNK         0.3459 
    134 H134       34.3851    1.9918   -4.3507 H         1 UNK         0.0612 
    135 H135       33.8921    0.6843   -3.3060 H         1 UNK         0.0612 
    136 H136       31.9351    1.2070   -1.7151 H         1 UNK         0.0624 
    137 H137       30.3376    1.5590   -2.3268 H         1 UNK         0.0624 
@<TRIPOS>BOND
     1    1    2 1    
     2    1   72 1    
     3    1   73 1    
     4    1   74 1    
     5    2    3 2    
     6    2    4 am   BACKBONE|DICT|INTERRES
     7    4    5 1    
     8    4   75 1    
     9    5    6 1    
    10    5   35 1    
    11    5   76 1    
    12    6    7 1    
    13    6   77 1    
    14    6   78 1    
    15    7    8 1    
    16    8    9 1    
    17    8   79 1    
    18    8   80 1    
    19    9   10 ar   
    20    9   14 ar   
    21   10   11 ar   
    22   10   81 1    
    23   11   12 ar   
    24   11   71 1    
    25   12   13 ar   
    26   12   82 1    
    27   13   14 ar   
    28   13   15 1    
    29   14   83 1    
    30   15   16 1    
    31   15   84 1    
    32   15   85 1    
    33   16   17 1    
    34   17   18 1    
    35   17   86 1    
    36   17   87 1    
    37   18   19 1    
    38   18   37 1    
    39   18   88 1    
    40   19   20 am   BACKBONE|DICT|INTERRES
    41   19   89 1    
    42   20   21 2    
    43   20   22 1    
    44   22   23 1    
    45   22   24 1    
    46   22   90 1    
    47   23   91 1    
    48   23   92 1    
    49   23   93 1    
    50   24   25 am   BACKBONE|DICT|INTERRES
    51   24   94 1    
    52   25   26 2    
    53   25   27 1    
    54   27   28 1    
    55   27   29 1    
    56   27   95 1    
    57   28   96 1    
    58   28   97 1    
    59   28   98 1    
    60   29   30 am   BACKBONE|DICT|INTERRES
    61   29   99 1    
    62   30   31 2    
    63   30   32 1    
    64   32   33 1    
    65   32   34 1    
    66   32  100 1    
    67   33  101 1    
    68   33  102 1    
    69   33  103 1    
    70   34   35 am   BACKBONE|DICT|INTERRES
    71   34  104 1    
    72   35   36 2    
    73   37   38 2    
    74   37   39 am   BACKBONE|DICT|INTERRES
    75   39   40 1    
    76   39  105 1    
    77   40   41 1    
    78   40   42 1    
    79   40  106 1    
    80   41  107 1    
    81   41  108 1    
    82   41  109 1    
    83   42   43 2    
    84   42   44 am   BACKBONE|DICT|INTERRES
    85   44   45 1    
    86   44  110 1    
    87   45   46 1    
    88   45   47 1    
    89   45  111 1    
    90   46  112 1    
    91   46  113 1    
    92   46  114 1    
    93   47   48 2    
    94   47   49 am   BACKBONE|DICT|INTERRES
    95   49   50 1    
    96   49  115 1    
    97   50   51 1    
    98   50   52 1    
    99   50  116 1    
   100   51  117 1    
   101   51  118 1    
   102   51  119 1    
   103   52   53 2    
   104   52   54 am   BACKBONE|DICT|INTERRES
   105   54   55 1    
   106   54  120 1    
   107   55   56 1    
   108   55   57 1    
   109   55  121 1    
   110   56  122 1    
   111   56  123 1    
   112   56  124 1    
   113   57   58 2    
   114   57   59 am   BACKBONE|DICT|INTERRES
   115   59   60 1    
   116   59  125 1    
   117   60   61 1    
   118   60   62 1    
   119   60  126 1    
   120   61  127 1    
   121   61  128 1    
   122   61  129 1    
   123   62   63 2    
   124   62   64 am   BACKBONE|DICT|INTERRES
   125   64   65 1    
   126   64  130 1    
   127   65   66 1    
   128   65   69 1    
   129   65  131 1    
   130   66   67 am   BACKBONE|DICT|INTERRES
   131   66   68 2    
   132   67  132 1    
   133   67  133 1    
   134   69   70 1    
   135   69  134 1    
   136   69  135 1    
   137   70   71 1    
   138   71  136 1    
   139   71  137 1    
@<TRIPOS>SUBSTRUCTURE
     1 UNK         1 GROUP             0       ****    0 ROOT    
