@<TRIPOS>MOLECULE
3R137
137   139    1
SMALL
USER_CHARGES


@<TRIPOS>ATOM
      1 CA         30.0694    0.6605   -0.7106 C.3       0 UNK        -0.2020 
      2 C          29.4404   -0.5966   -1.2908 C.2       0 UNK         0.4855 
      3 O          29.0369   -0.5958   -2.4518 O.2       0 UNK        -0.5197 
      4 N          29.3500   -1.6689   -0.4943 N.am      1 UNK        -0.4892 
      5 CA         28.7946   -2.9684   -0.8885 C.3       1 UNK         0.0835 
      6 C6         29.3570   -4.1295   -0.0236 C.3       12 UNK        -0.0855 
      7 S7         31.1786   -4.2432   -0.0246 S.3       12 UNK        -0.2931 
      8 C8         31.4811   -5.5307   -1.2770 C.3       12 UNK         0.0378 
      9 C9         31.4298   -4.9581   -2.6848 C.ar      12 UNK        -0.0802 
     10 C10        32.5135   -4.2202   -3.1697 C.ar      12 UNK        -0.0944 
     11 C11        32.4843   -3.6748   -4.4554 C.ar      12 UNK        -0.0787 
     12 C12        31.3631   -3.8828   -5.2632 C.ar      12 UNK        -0.0862 
     13 C13        30.2748   -4.6241   -4.7939 C.ar      12 UNK        -0.0733 
     14 C14        30.3150   -5.1651   -3.5042 C.ar      12 UNK        -0.0832 
     15 C15        29.0642   -4.8519   -5.6896 C.3       12 UNK         0.0240 
     16 S16        27.5982   -3.9402   -5.1135 S.3       12 UNK        -0.2522 
     17 C17        28.0865   -2.2044   -5.3952 C.3       12 UNK        -0.0967 
     18 CA         27.3070   -1.5197   -6.5453 C.3       5 UNK         0.0660 
     19 N          25.8542   -1.6277   -6.4033 N.am      5 UNK        -0.4015 
     20 C          24.9759   -1.4724   -7.4038 C.2       4 UNK         0.4946 
     21 O          25.2963   -1.3119   -8.5816 O.2       4 UNK        -0.5353 
     22 CA         23.4818   -1.4853   -7.0319 C.3       4 UNK         0.0277 
     23 CB         22.9132   -2.9091   -7.1449 C.3       4 UNK        -0.1981 
     24 N          23.2137   -0.9609   -5.6901 N.am      4 UNK        -0.4209 
     25 C          23.3942    0.3156   -5.3200 C.2       3 UNK         0.4942 
     26 O          23.7549    1.2072   -6.0873 O.2       3 UNK        -0.5208 
     27 CA         23.1912    0.6358   -3.8271 C.3       3 UNK         0.0250 
     28 CB         21.7145    0.9486   -3.5377 C.3       3 UNK        -0.1990 
     29 N          23.6562   -0.4307   -2.9296 N.am      3 UNK        -0.4232 
     30 C          24.9143   -0.8910   -2.8877 C.2       2 UNK         0.4993 
     31 O          25.8211   -0.4592   -3.6025 O.2       2 UNK        -0.5286 
     32 CA         25.1900   -2.0701   -1.9511 C.3       2 UNK         0.0209 
     33 CB         24.5738   -3.3652   -2.5195 C.3       2 UNK        -0.1931 
     34 N          26.6362   -2.2243   -1.8001 N.am      2 UNK        -0.4546 
     35 C          27.2502   -2.9321   -0.8482 C.2       1 UNK         0.5154 
     36 O          26.6426   -3.5197    0.0500 O.2       1 UNK        -0.5181 
     37 C          27.6964   -0.0357   -6.6587 C.2       5 UNK         0.5014 
     38 O          28.3728    0.3410   -7.6117 O.2       5 UNK        -0.5248 
     39 N          27.2078    0.7871   -5.7168 N.am      6 UNK        -0.4434 
     40 CA         27.4540    2.2300   -5.6250 C.3       6 UNK         0.0363 
     41 CB         26.7431    2.7860   -4.3821 C.3       6 UNK        -0.1936 
     42 C          27.0545    3.0296   -6.8793 C.2       6 UNK         0.5081 
     43 O          27.6884    4.0427   -7.1748 O.2       6 UNK        -0.5248 
     44 N          26.0254    2.5598   -7.5964 N.am      7 UNK        -0.4718 
     45 CA         25.5746    3.1037   -8.8788 C.3       7 UNK         0.0273 
     46 CB         24.1601    2.5723   -9.1654 C.3       7 UNK        -0.1935 
     47 C          26.5114    2.7922  -10.0647 C.2       7 UNK         0.5018 
     48 O          26.3762    3.4387  -11.1052 O.2       7 UNK        -0.5186 
     49 N          27.4134    1.8135   -9.9165 N.am      8 UNK        -0.4240 
     50 CA         28.3738    1.3843  -10.9336 C.3       8 UNK         0.0235 
     51 CB         28.3534   -0.1553  -10.9968 C.3       8 UNK        -0.2000 
     52 C          29.7822    1.9025  -10.5973 C.2       8 UNK         0.4941 
     53 O          29.9899    2.5323   -9.5588 O.2       8 UNK        -0.5273 
     54 N          30.7445    1.6170  -11.4856 N.am      9 UNK        -0.4262 
     55 CA         32.1624    1.9463  -11.2957 C.3       9 UNK         0.0264 
     56 CB         32.9068    1.7846  -12.6312 C.3       9 UNK        -0.1955 
     57 C          32.8418    1.1074  -10.1960 C.2       9 UNK         0.5031 
     58 O          33.7950    1.5820   -9.5764 O.2       9 UNK        -0.5390 
     59 N          32.3474   -0.1173   -9.9707 N.am      10 UNK        -0.4204 
     60 CA         32.8141   -1.0335   -8.9326 C.3       10 UNK         0.0237 
     61 CB         32.4230   -2.4727   -9.3180 C.3       10 UNK        -0.1985 
     62 C          32.2321   -0.6282   -7.5696 C.2       10 UNK         0.4970 
     63 O          31.1307   -1.0595   -7.2336 O.2       10 UNK        -0.4914 
     64 N          32.9853    0.1910   -6.8258 N.am      11 UNK        -0.4285 
     65 CA         32.6417    0.7312   -5.4964 C.3       11 UNK         0.1007 
     66 C          31.5176    1.8117   -5.4951 C.2       11 UNK         0.5703 
     67 N          31.0631    2.3042   -6.6397 N.am      11 UNK        -0.7361 
     68 O          31.0918    2.2616   -4.4343 O.2       11 UNK        -0.4986 
     69 C69        32.4236   -0.3690   -4.4140 C.3       12 UNK        -0.0947 
     70 S70        33.9401   -1.3242   -4.0666 S.3       12 UNK        -0.2240 
     71 C71        33.6720   -2.8792   -4.9784 C.3       12 UNK         0.0194 
     72 H72        30.9029    0.9826   -1.3346 H         1 UNK         0.0906 
     73 H73        29.3362    1.4661   -0.6824 H         1 UNK         0.0906 
     74 H74        30.4431    0.5019    0.3007 H         1 UNK         0.0906 
     75 H75        29.6912   -1.6157    0.4550 H         1 UNK         0.3140 
     76 H76        29.0806   -3.1628   -1.9248 H         1 UNK         0.1085 
     77 H77        29.0457   -4.0122    1.0163 H         1 UNK         0.0836 
     78 H78        28.9391   -5.0832   -0.3513 H         1 UNK         0.0836 
     79 H79        30.7710   -6.3504   -1.1576 H         1 UNK         0.0731 
     80 H80        32.4684   -5.9611   -1.1025 H         1 UNK         0.0731 
     81 H81        33.3779   -4.0587   -2.5398 H         1 UNK         0.1312 
     82 H82        31.3360   -3.4657   -6.2602 H         1 UNK         0.1406 
     83 H83        29.4735   -5.7385   -3.1393 H         1 UNK         0.1631 
     84 H84        28.8300   -5.9170   -5.7098 H         1 UNK         0.0717 
     85 H85        29.2795   -4.5665   -6.7207 H         1 UNK         0.0717 
     86 H86        27.9326   -1.6743   -4.4577 H         1 UNK         0.0934 
     87 H87        29.1587   -2.1452   -5.5879 H         1 UNK         0.0934 
     88 H88        27.5962   -2.0107   -7.4773 H         1 UNK         0.0739 
     89 H89        25.5117   -1.7075   -5.4568 H         1 UNK         0.3093 
     90 H90        22.9603   -0.8489   -7.7504 H         1 UNK         0.0818 
     91 H91        21.8382   -2.9236   -6.9639 H         1 UNK         0.0819 
     92 H92        23.0767   -3.3150   -8.1443 H         1 UNK         0.0819 
     93 H93        23.3842   -3.5914   -6.4359 H         1 UNK         0.0819 
     94 H94        22.9017   -1.6217   -4.9937 H         1 UNK         0.3041 
     95 H95        23.7762    1.5292   -3.6020 H         1 UNK         0.0784 
     96 H96        21.3535    1.7524   -4.1813 H         1 UNK         0.0793 
     97 H97        21.0745    0.0821   -3.7088 H         1 UNK         0.0793 
     98 H98        21.5721    1.2741   -2.5070 H         1 UNK         0.0793 
     99 H99        22.9647   -0.8394   -2.3168 H         1 UNK         0.3024 
    100 H100       24.7538   -1.8449   -0.9752 H         1 UNK         0.1171 
    101 H101       23.4935   -3.2744   -2.6374 H         1 UNK         0.0786 
    102 H102       24.9901   -3.6138   -3.4963 H         1 UNK         0.0786 
    103 H103       24.7484   -4.2153   -1.8600 H         1 UNK         0.0786 
    104 H104       27.1966   -1.6674   -2.4413 H         1 UNK         0.2977 
    105 H105       26.6655    0.3766   -4.9569 H         1 UNK         0.3127 
    106 H106       28.5266    2.3588   -5.4837 H         1 UNK         0.0770 
    107 H107       25.6605    2.6954   -4.4680 H         1 UNK         0.0814 
    108 H108       26.9727    3.8430   -4.2423 H         1 UNK         0.0814 
    109 H109       27.0556    2.2623   -3.4780 H         1 UNK         0.0814 
    110 H110       25.5088    1.7683   -7.2295 H         1 UNK         0.2983 
    111 H111       25.5210    4.1907   -8.7877 H         1 UNK         0.0947 
    112 H112       23.7727    2.9697  -10.1045 H         1 UNK         0.0806 
    113 H113       23.4615    2.8612   -8.3798 H         1 UNK         0.0806 
    114 H114       24.1482    1.4838   -9.2397 H         1 UNK         0.0806 
    115 H115       27.5456    1.3945   -8.9985 H         1 UNK         0.3000 
    116 H116       28.0922    1.7785  -11.9122 H         1 UNK         0.0850 
    117 H117       28.9566   -0.5309  -11.8237 H         1 UNK         0.0810 
    118 H118       27.3404   -0.5304  -11.1450 H         1 UNK         0.0810 
    119 H119       28.7387   -0.6033  -10.0798 H         1 UNK         0.0810 
    120 H120       30.5008    1.1216  -12.3317 H         1 UNK         0.3040 
    121 H121       32.2297    2.9942  -10.9944 H         1 UNK         0.0766 
    122 H122       33.9599    2.0491  -12.5242 H         1 UNK         0.0812 
    123 H123       32.4889    2.4345  -13.4003 H         1 UNK         0.0812 
    124 H124       32.8649    0.7581  -12.9976 H         1 UNK         0.0812 
    125 H125       31.5393   -0.4089  -10.4995 H         1 UNK         0.3205 
    126 H126       33.9042   -0.9891   -8.8763 H         1 UNK         0.0754 
    127 H127       32.7481   -3.1817   -8.5554 H         1 UNK         0.0769 
    128 H128       32.8897   -2.7715  -10.2568 H         1 UNK         0.0769 
    129 H129       31.3437   -2.5869   -9.4297 H         1 UNK         0.0769 
    130 H130       33.8467    0.5391   -7.2236 H         1 UNK         0.2981 
    131 H131       33.5268    1.2929   -5.1960 H         1 UNK         0.0541 
    132 H132       30.3480    3.0130   -6.6289 H         1 UNK         0.3459 
    133 H133       31.3605    1.9244   -7.5244 H         1 UNK         0.3459 
    134 H134       31.6016   -1.0333   -4.6803 H         1 UNK         0.0612 
    135 H135       32.1310    0.0820   -3.4647 H         1 UNK         0.0612 
    136 H136       34.5706   -3.4909   -4.8888 H         1 UNK         0.0624 
    137 H137       33.5615   -2.6620   -6.0403 H         1 UNK         0.0624 
@<TRIPOS>BOND
     1    1    2 1    
     2    1   72 1    
     3    1   73 1    
     4    1   74 1    
     5    2    3 2    
     6    2    4 am   BACKBONE|DICT|INTERRES
     7    4    5 1    
     8    4   75 1    
     9    5    6 1    
    10    5   35 1    
    11    5   76 1    
    12    6    7 1    
    13    6   77 1    
    14    6   78 1    
    15    7    8 1    
    16    8    9 1    
    17    8   79 1    
    18    8   80 1    
    19    9   10 ar   
    20    9   14 ar   
    21   10   11 ar   
    22   10   81 1    
    23   11   12 ar   
    24   11   71 1    
    25   12   13 ar   
    26   12   82 1    
    27   13   14 ar   
    28   13   15 1    
    29   14   83 1    
    30   15   16 1    
    31   15   84 1    
    32   15   85 1    
    33   16   17 1    
    34   17   18 1    
    35   17   86 1    
    36   17   87 1    
    37   18   19 1    
    38   18   37 1    
    39   18   88 1    
    40   19   20 am   BACKBONE|DICT|INTERRES
    41   19   89 1    
    42   20   21 2    
    43   20   22 1    
    44   22   23 1    
    45   22   24 1    
    46   22   90 1    
    47   23   91 1    
    48   23   92 1    
    49   23   93 1    
    50   24   25 am   BACKBONE|DICT|INTERRES
    51   24   94 1    
    52   25   26 2    
    53   25   27 1    
    54   27   28 1    
    55   27   29 1    
    56   27   95 1    
    57   28   96 1    
    58   28   97 1    
    59   28   98 1    
    60   29   30 am   BACKBONE|DICT|INTERRES
    61   29   99 1    
    62   30   31 2    
    63   30   32 1    
    64   32   33 1    
    65   32   34 1    
    66   32  100 1    
    67   33  101 1    
    68   33  102 1    
    69   33  103 1    
    70   34   35 am   BACKBONE|DICT|INTERRES
    71   34  104 1    
    72   35   36 2    
    73   37   38 2    
    74   37   39 am   BACKBONE|DICT|INTERRES
    75   39   40 1    
    76   39  105 1    
    77   40   41 1    
    78   40   42 1    
    79   40  106 1    
    80   41  107 1    
    81   41  108 1    
    82   41  109 1    
    83   42   43 2    
    84   42   44 am   BACKBONE|DICT|INTERRES
    85   44   45 1    
    86   44  110 1    
    87   45   46 1    
    88   45   47 1    
    89   45  111 1    
    90   46  112 1    
    91   46  113 1    
    92   46  114 1    
    93   47   48 2    
    94   47   49 am   BACKBONE|DICT|INTERRES
    95   49   50 1    
    96   49  115 1    
    97   50   51 1    
    98   50   52 1    
    99   50  116 1    
   100   51  117 1    
   101   51  118 1    
   102   51  119 1    
   103   52   53 2    
   104   52   54 am   BACKBONE|DICT|INTERRES
   105   54   55 1    
   106   54  120 1    
   107   55   56 1    
   108   55   57 1    
   109   55  121 1    
   110   56  122 1    
   111   56  123 1    
   112   56  124 1    
   113   57   58 2    
   114   57   59 am   BACKBONE|DICT|INTERRES
   115   59   60 1    
   116   59  125 1    
   117   60   61 1    
   118   60   62 1    
   119   60  126 1    
   120   61  127 1    
   121   61  128 1    
   122   61  129 1    
   123   62   63 2    
   124   62   64 am   BACKBONE|DICT|INTERRES
   125   64   65 1    
   126   64  130 1    
   127   65   66 1    
   128   65   69 1    
   129   65  131 1    
   130   66   67 am   BACKBONE|DICT|INTERRES
   131   66   68 2    
   132   67  132 1    
   133   67  133 1    
   134   69   70 1    
   135   69  134 1    
   136   69  135 1    
   137   70   71 1    
   138   71  136 1    
   139   71  137 1    
@<TRIPOS>SUBSTRUCTURE
     1 UNK         1 GROUP             0       ****    0 ROOT    
