@<TRIPOS>MOLECULE
3R137
137   139    1
SMALL
USER_CHARGES


@<TRIPOS>ATOM
      1 CA         30.4530    0.7815   -1.4877 C.3       0 UNK        -0.2020 
      2 C          29.5261   -0.3739   -1.8340 C.2       0 UNK         0.4855 
      3 O          28.9763   -0.4033   -2.9342 O.2       0 UNK        -0.5197 
      4 N          29.3597   -1.3291   -0.9094 N.am      1 UNK        -0.4892 
      5 CA         28.5211   -2.5186   -1.0904 C.3       1 UNK         0.0835 
      6 C6         28.7875   -3.6168   -0.0223 C.3       12 UNK        -0.0855 
      7 S7         30.5481   -4.0130    0.2655 S.3       12 UNK        -0.2931 
      8 C8         30.9042   -5.2254   -1.0513 C.3       12 UNK         0.0378 
      9 C9         30.9353   -4.5689   -2.4241 C.ar      12 UNK        -0.0802 
     10 C10        31.8207   -3.5152   -2.6718 C.ar      12 UNK        -0.0944 
     11 C11        31.8029   -2.8442   -3.8957 C.ar      12 UNK        -0.0787 
     12 C12        30.9146   -3.2584   -4.8910 C.ar      12 UNK        -0.0862 
     13 C13        30.0351   -4.3213   -4.6643 C.ar      12 UNK        -0.0733 
     14 C14        30.0549   -4.9799   -3.4306 C.ar      12 UNK        -0.0832 
     15 C15        29.0430   -4.7369   -5.7415 C.3       12 UNK         0.0240 
     16 S16        27.3672   -4.1173   -5.3853 S.3       12 UNK        -0.2522 
     17 C17        27.5935   -2.3123   -5.5272 C.3       12 UNK        -0.0967 
     18 CA         26.6825   -1.6697   -6.6018 C.3       5 UNK         0.0660 
     19 N          25.2586   -1.8805   -6.3481 N.am      5 UNK        -0.4015 
     20 C          24.3141   -1.9712   -7.2956 C.2       4 UNK         0.4946 
     21 O          24.5531   -1.9612   -8.5038 O.2       4 UNK        -0.5353 
     22 CA         22.8500   -2.1122   -6.8334 C.3       4 UNK         0.0277 
     23 CB         22.4049   -3.5819   -6.9139 C.3       4 UNK        -0.1981 
     24 N          22.6227   -1.6200   -5.4734 N.am      4 UNK        -0.4209 
     25 C          22.5901   -0.3265   -5.1207 C.2       3 UNK         0.4942 
     26 O          22.6141    0.6025   -5.9272 O.2       3 UNK        -0.5208 
     27 CA         22.5589   -0.0174   -3.6096 C.3       3 UNK         0.0250 
     28 CB         21.1201    0.2622   -3.1466 C.3       3 UNK        -0.1990 
     29 N          23.1419   -1.0792   -2.7761 N.am      3 UNK        -0.4232 
     30 C          24.4189   -1.4812   -2.8430 C.2       2 UNK         0.4993 
     31 O          25.2512   -0.9683   -3.5943 O.2       2 UNK        -0.5286 
     32 CA         24.7886   -2.7240   -2.0172 C.3       2 UNK         0.0209 
     33 CB         24.2115   -3.9897   -2.6762 C.3       2 UNK        -0.1931 
     34 N          26.2374   -2.8938   -1.8915 N.am      2 UNK        -0.4546 
     35 C          27.0223   -2.1548   -1.0983 C.2       1 UNK         0.5154 
     36 O          26.5987   -1.2707   -0.3476 O.2       1 UNK        -0.5181 
     37 C          26.9327   -0.1585   -6.7163 C.2       5 UNK         0.5014 
     38 O          27.2678    0.3090   -7.8049 O.2       5 UNK        -0.5248 
     39 N          26.7264    0.5647   -5.6024 N.am      6 UNK        -0.4434 
     40 CA         26.8024    2.0219   -5.4327 C.3       6 UNK         0.0363 
     41 CB         25.4326    2.6436   -5.7808 C.3       6 UNK        -0.1936 
     42 C          27.9903    2.6757   -6.1720 C.2       6 UNK         0.5081 
     43 O          29.1361    2.4892   -5.7611 O.2       6 UNK        -0.5248 
     44 N          27.6913    3.4083   -7.2520 N.am      7 UNK        -0.4718 
     45 CA         28.6571    3.9901   -8.1868 C.3       7 UNK         0.0273 
     46 CB         28.4982    5.5216   -8.1734 C.3       7 UNK        -0.1935 
     47 C          28.4920    3.4158   -9.6087 C.2       7 UNK         0.5018 
     48 O          29.0803    3.9586  -10.5456 O.2       7 UNK        -0.5186 
     49 N          27.6960    2.3457   -9.7607 N.am      8 UNK        -0.4240 
     50 CA         27.5739    1.5739  -11.0003 C.3       8 UNK         0.0235 
     51 CB         26.2131    0.8582  -11.0397 C.3       8 UNK        -0.2000 
     52 C          28.7311    0.5698  -11.1189 C.2       8 UNK         0.4941 
     53 O          29.2848    0.4029  -12.2067 O.2       8 UNK        -0.5273 
     54 N          29.1019   -0.0434   -9.9861 N.am      9 UNK        -0.4262 
     55 CA         30.3583   -0.7674   -9.7992 C.3       9 UNK         0.0264 
     56 CB         30.2753   -1.5746   -8.4921 C.3       9 UNK        -0.1955 
     57 C          31.5346    0.2218   -9.7390 C.2       9 UNK         0.5031 
     58 O          31.3500    1.3581   -9.2962 O.2       9 UNK        -0.5390 
     59 N          32.7325   -0.2334  -10.1318 N.am      10 UNK        -0.4204 
     60 CA         33.9639    0.5711  -10.1648 C.3       10 UNK         0.0237 
     61 CB         35.1099   -0.2726  -10.7469 C.3       10 UNK        -0.1985 
     62 C          34.3724    1.1682   -8.8037 C.2       10 UNK         0.4970 
     63 O          34.9267    2.2674   -8.7683 O.2       10 UNK        -0.4914 
     64 N          34.0723    0.4417   -7.7222 N.am      11 UNK        -0.4285 
     65 CA         34.2211    0.8776   -6.3272 C.3       11 UNK         0.1007 
     66 C          32.9498    1.5570   -5.7319 C.2       11 UNK         0.5703 
     67 N          31.8737    1.7513   -6.4850 N.am      11 UNK        -0.7361 
     68 O          32.9442    1.9202   -4.5581 O.2       11 UNK        -0.4986 
     69 C69        34.7618   -0.2756   -5.4361 C.3       12 UNK        -0.0947 
     70 S70        33.8019   -1.8274   -5.5367 S.3       12 UNK        -0.2240 
     71 C71        32.6898   -1.6283   -4.1120 C.3       12 UNK         0.0194 
     72 H72        31.2370    0.8700   -2.2400 H         1 UNK         0.0906 
     73 H73        29.8940    1.7166   -1.4691 H         1 UNK         0.0906 
     74 H74        30.9282    0.6477   -0.5162 H         1 UNK         0.0906 
     75 H75        29.8263   -1.2585   -0.0168 H         1 UNK         0.3140 
     76 H76        28.7617   -2.9246   -2.0739 H         1 UNK         0.1085 
     77 H77        28.3769   -3.3089    0.9417 H         1 UNK         0.0836 
     78 H78        28.2627   -4.5370   -0.2865 H         1 UNK         0.0836 
     79 H79        31.8759   -5.6819   -0.8577 H         1 UNK         0.0731 
     80 H80        30.1703   -6.0319   -1.0119 H         1 UNK         0.0731 
     81 H81        32.4909   -3.1885   -1.8884 H         1 UNK         0.1312 
     82 H82        30.8978   -2.7342   -5.8356 H         1 UNK         0.1406 
     83 H83        29.3622   -5.7906   -3.2478 H         1 UNK         0.1631 
     84 H84        29.0114   -5.8255   -5.8066 H         1 UNK         0.0717 
     85 H85        29.3607   -4.3812   -6.7230 H         1 UNK         0.0717 
     86 H86        27.4215   -1.8836   -4.5403 H         1 UNK         0.0934 
     87 H87        28.6332   -2.0874   -5.7604 H         1 UNK         0.0934 
     88 H88        26.9425   -2.1202   -7.5625 H         1 UNK         0.0739 
     89 H89        24.9822   -1.8169   -5.3757 H         1 UNK         0.3093 
     90 H90        22.2319   -1.5281   -7.5189 H         1 UNK         0.0818 
     91 H91        21.3519   -3.6935   -6.6547 H         1 UNK         0.0819 
     92 H92        22.5303   -3.9718   -7.9251 H         1 UNK         0.0819 
     93 H93        22.9866   -4.2187   -6.2459 H         1 UNK         0.0819 
     94 H94        22.5570   -2.3140   -4.7441 H         1 UNK         0.3041 
     95 H95        23.1513    0.8867   -3.4533 H         1 UNK         0.0784 
     96 H96        20.6717    1.0666   -3.7318 H         1 UNK         0.0793 
     97 H97        20.4814   -0.6152   -3.2564 H         1 UNK         0.0793 
     98 H98        21.0917    0.5713   -2.1015 H         1 UNK         0.0793 
     99 H99        22.5121   -1.5510   -2.1422 H         1 UNK         0.3024 
    100 H100       24.3624   -2.6127   -1.0172 H         1 UNK         0.1171 
    101 H101       23.1234   -3.9472   -2.7379 H         1 UNK         0.0786 
    102 H102       24.4611   -4.8827   -2.1025 H         1 UNK         0.0786 
    103 H103       24.5920   -4.1284   -3.6894 H         1 UNK         0.0786 
    104 H104       26.6609   -3.5783   -2.5014 H         1 UNK         0.2977 
    105 H105       26.4387    0.0562   -4.7693 H         1 UNK         0.3127 
    106 H106       26.9817    2.1951   -4.3704 H         1 UNK         0.0770 
    107 H107       25.1174    2.4038   -6.7971 H         1 UNK         0.0814 
    108 H108       25.4460    3.7293   -5.6747 H         1 UNK         0.0814 
    109 H109       24.6604    2.2729   -5.1072 H         1 UNK         0.0814 
    110 H110       26.7175    3.5047   -7.5038 H         1 UNK         0.2983 
    111 H111       29.6766    3.7466   -7.8787 H         1 UNK         0.0947 
    112 H112       29.2377    6.0000   -8.8169 H         1 UNK         0.0806 
    113 H113       28.6382    5.9242   -7.1701 H         1 UNK         0.0806 
    114 H114       27.5119    5.8277   -8.5238 H         1 UNK         0.0806 
    115 H115       27.3310    1.8988   -8.9244 H         1 UNK         0.3000 
    116 H116       27.6251    2.2538  -11.8537 H         1 UNK         0.0850 
    117 H117       26.0945    0.3022  -11.9705 H         1 UNK         0.0810 
    118 H118       25.3898    1.5701  -10.9800 H         1 UNK         0.0810 
    119 H119       26.0996    0.1469  -10.2204 H         1 UNK         0.0810 
    120 H120       28.5653    0.1560   -9.1455 H         1 UNK         0.3040 
    121 H121       30.5008   -1.4503  -10.6393 H         1 UNK         0.0766 
    122 H122       31.1827   -2.1582   -8.3320 H         1 UNK         0.0812 
    123 H123       29.4397   -2.2744   -8.5108 H         1 UNK         0.0812 
    124 H124       30.1479   -0.9231   -7.6257 H         1 UNK         0.0812 
    125 H125       32.8046   -1.1829  -10.4694 H         1 UNK         0.3205 
    126 H126       33.7821    1.4100  -10.8400 H         1 UNK         0.0754 
    127 H127       36.0317    0.3081  -10.8051 H         1 UNK         0.0769 
    128 H128       34.8806   -0.6123  -11.7572 H         1 UNK         0.0769 
    129 H129       35.3168   -1.1512  -10.1344 H         1 UNK         0.0769 
    130 H130       33.6168   -0.4495   -7.8481 H         1 UNK         0.2981 
    131 H131       34.9807    1.6607   -6.2985 H         1 UNK         0.0541 
    132 H132       31.8651    1.5255   -7.4743 H         1 UNK         0.3459 
    133 H133       31.0357    2.1446   -6.0685 H         1 UNK         0.3459 
    134 H134       34.8523    0.0386   -4.3948 H         1 UNK         0.0612 
    135 H135       35.7791   -0.5132   -5.7501 H         1 UNK         0.0612 
    136 H136       32.0482   -0.7606   -4.2667 H         1 UNK         0.0624 
    137 H137       33.2852   -1.4217   -3.2214 H         1 UNK         0.0624 
@<TRIPOS>BOND
     1    1    2 1    
     2    1   72 1    
     3    1   73 1    
     4    1   74 1    
     5    2    3 2    
     6    2    4 am   BACKBONE|DICT|INTERRES
     7    4    5 1    
     8    4   75 1    
     9    5    6 1    
    10    5   35 1    
    11    5   76 1    
    12    6    7 1    
    13    6   77 1    
    14    6   78 1    
    15    7    8 1    
    16    8    9 1    
    17    8   79 1    
    18    8   80 1    
    19    9   10 ar   
    20    9   14 ar   
    21   10   11 ar   
    22   10   81 1    
    23   11   12 ar   
    24   11   71 1    
    25   12   13 ar   
    26   12   82 1    
    27   13   14 ar   
    28   13   15 1    
    29   14   83 1    
    30   15   16 1    
    31   15   84 1    
    32   15   85 1    
    33   16   17 1    
    34   17   18 1    
    35   17   86 1    
    36   17   87 1    
    37   18   19 1    
    38   18   37 1    
    39   18   88 1    
    40   19   20 am   BACKBONE|DICT|INTERRES
    41   19   89 1    
    42   20   21 2    
    43   20   22 1    
    44   22   23 1    
    45   22   24 1    
    46   22   90 1    
    47   23   91 1    
    48   23   92 1    
    49   23   93 1    
    50   24   25 am   BACKBONE|DICT|INTERRES
    51   24   94 1    
    52   25   26 2    
    53   25   27 1    
    54   27   28 1    
    55   27   29 1    
    56   27   95 1    
    57   28   96 1    
    58   28   97 1    
    59   28   98 1    
    60   29   30 am   BACKBONE|DICT|INTERRES
    61   29   99 1    
    62   30   31 2    
    63   30   32 1    
    64   32   33 1    
    65   32   34 1    
    66   32  100 1    
    67   33  101 1    
    68   33  102 1    
    69   33  103 1    
    70   34   35 am   BACKBONE|DICT|INTERRES
    71   34  104 1    
    72   35   36 2    
    73   37   38 2    
    74   37   39 am   BACKBONE|DICT|INTERRES
    75   39   40 1    
    76   39  105 1    
    77   40   41 1    
    78   40   42 1    
    79   40  106 1    
    80   41  107 1    
    81   41  108 1    
    82   41  109 1    
    83   42   43 2    
    84   42   44 am   BACKBONE|DICT|INTERRES
    85   44   45 1    
    86   44  110 1    
    87   45   46 1    
    88   45   47 1    
    89   45  111 1    
    90   46  112 1    
    91   46  113 1    
    92   46  114 1    
    93   47   48 2    
    94   47   49 am   BACKBONE|DICT|INTERRES
    95   49   50 1    
    96   49  115 1    
    97   50   51 1    
    98   50   52 1    
    99   50  116 1    
   100   51  117 1    
   101   51  118 1    
   102   51  119 1    
   103   52   53 2    
   104   52   54 am   BACKBONE|DICT|INTERRES
   105   54   55 1    
   106   54  120 1    
   107   55   56 1    
   108   55   57 1    
   109   55  121 1    
   110   56  122 1    
   111   56  123 1    
   112   56  124 1    
   113   57   58 2    
   114   57   59 am   BACKBONE|DICT|INTERRES
   115   59   60 1    
   116   59  125 1    
   117   60   61 1    
   118   60   62 1    
   119   60  126 1    
   120   61  127 1    
   121   61  128 1    
   122   61  129 1    
   123   62   63 2    
   124   62   64 am   BACKBONE|DICT|INTERRES
   125   64   65 1    
   126   64  130 1    
   127   65   66 1    
   128   65   69 1    
   129   65  131 1    
   130   66   67 am   BACKBONE|DICT|INTERRES
   131   66   68 2    
   132   67  132 1    
   133   67  133 1    
   134   69   70 1    
   135   69  134 1    
   136   69  135 1    
   137   70   71 1    
   138   71  136 1    
   139   71  137 1    
@<TRIPOS>SUBSTRUCTURE
     1 UNK         1 GROUP             0       ****    0 ROOT    
