@<TRIPOS>MOLECULE
3R137
137   139    1
SMALL
USER_CHARGES


@<TRIPOS>ATOM
      1 CA         23.8097   -5.7821   -3.8597 C.3       0 UNK        -0.2020 
      2 C          24.3350   -4.9066   -2.7324 C.2       0 UNK         0.4855 
      3 O          23.5949   -4.0760   -2.2037 O.2       0 UNK        -0.5197 
      4 N          25.6103   -5.0888   -2.3679 N.am      1 UNK        -0.4892 
      5 CA         26.3513   -4.3521   -1.3368 C.3       1 UNK         0.0835 
      6 C6         27.7924   -4.9066   -1.1325 C.3       12 UNK        -0.0855 
      7 S7         28.6151   -5.5388   -2.6445 S.3       12 UNK        -0.2931 
      8 C8         30.3425   -5.0184   -2.4065 C.3       12 UNK         0.0378 
      9 C9         30.6174   -3.6792   -3.0710 C.ar      12 UNK        -0.0802 
     10 C10        30.9806   -3.6298   -4.4193 C.ar      12 UNK        -0.0944 
     11 C11        31.2394   -2.4054   -5.0418 C.ar      12 UNK        -0.0787 
     12 C12        31.1283   -1.2207   -4.3077 C.ar      12 UNK        -0.0862 
     13 C13        30.7746   -1.2591   -2.9555 C.ar      12 UNK        -0.0733 
     14 C14        30.5237   -2.4916   -2.3429 C.ar      12 UNK        -0.0832 
     15 C15        30.6799    0.0206   -2.1395 C.3       12 UNK         0.0240 
     16 S16        28.9872    0.2856   -1.5324 S.3       12 UNK        -0.2522 
     17 C17        28.3555    1.6043   -2.6169 C.3       12 UNK        -0.0967 
     18 CA         28.3180    1.2972   -4.1392 C.3       5 UNK         0.0660 
     19 N          27.7393   -0.0049   -4.4867 N.am      5 UNK        -0.4015 
     20 C          27.7422   -0.5318   -5.7235 C.2       4 UNK         0.4946 
     21 O          28.3464   -0.0441   -6.6822 O.2       4 UNK        -0.5353 
     22 CA         26.8771   -1.7814   -5.9531 C.3       4 UNK         0.0277 
     23 CB         27.6741   -3.0688   -5.6926 C.3       4 UNK        -0.1981 
     24 N          25.6651   -1.7637   -5.1301 N.am      4 UNK        -0.4209 
     25 C          24.6140   -0.9618   -5.3620 C.2       3 UNK         0.4942 
     26 O          24.5395   -0.2005   -6.3247 O.2       3 UNK        -0.5208 
     27 CA         23.4723   -0.9658   -4.3307 C.3       3 UNK         0.0250 
     28 CB         22.4199   -2.0268   -4.6846 C.3       3 UNK        -0.1990 
     29 N          23.9490   -1.1646   -2.9603 N.am      3 UNK        -0.4232 
     30 C          24.6950   -0.2656   -2.2996 C.2       2 UNK         0.4993 
     31 O          24.9897    0.8381   -2.7582 O.2       2 UNK        -0.5286 
     32 CA         25.2549   -0.6744   -0.9256 C.3       2 UNK         0.0209 
     33 CB         24.3073   -0.2200    0.1953 C.3       2 UNK        -0.1931 
     34 N          25.5187   -2.1109   -0.7895 N.am      2 UNK        -0.4546 
     35 C          26.3204   -2.8305   -1.5891 C.2       1 UNK         0.5154 
     36 O          26.9506   -2.3473   -2.5294 O.2       1 UNK        -0.5181 
     37 C          27.5805    2.4377   -4.8679 C.2       5 UNK         0.5014 
     38 O          28.2281    3.2593   -5.5163 O.2       5 UNK        -0.5248 
     39 N          26.2428    2.4585   -4.7511 N.am      6 UNK        -0.4434 
     40 CA         25.3572    3.4664   -5.3421 C.3       6 UNK         0.0363 
     41 CB         23.9207    3.2490   -4.8412 C.3       6 UNK        -0.1936 
     42 C          25.3952    3.4896   -6.8782 C.2       6 UNK         0.5081 
     43 O          25.4172    4.5717   -7.4653 O.2       6 UNK        -0.5248 
     44 N          25.4286    2.3038   -7.5014 N.am      7 UNK        -0.4718 
     45 CA         25.5908    2.1371   -8.9483 C.3       7 UNK         0.0273 
     46 CB         25.2051    0.7000   -9.3357 C.3       7 UNK        -0.1935 
     47 C          27.0141    2.4488   -9.4445 C.2       7 UNK         0.5018 
     48 O          27.1837    2.6752  -10.6432 O.2       7 UNK        -0.5186 
     49 N          27.9976    2.4280   -8.5298 N.am      8 UNK        -0.4240 
     50 CA         29.4422    2.5329   -8.7583 C.3       8 UNK         0.0235 
     51 CB         29.8254    3.9473   -9.2413 C.3       8 UNK        -0.2000 
     52 C          29.9294    1.4151   -9.6954 C.2       8 UNK         0.4941 
     53 O          30.5057    1.6925  -10.7502 O.2       8 UNK        -0.5273 
     54 N          29.6366    0.1648   -9.3098 N.am      9 UNK        -0.4262 
     55 CA         29.8161   -1.0528  -10.1089 C.3       9 UNK         0.0264 
     56 CB         28.9745   -2.1777   -9.4788 C.3       9 UNK        -0.1955 
     57 C          31.2918   -1.4571  -10.3181 C.2       9 UNK         0.5031 
     58 O          31.7001   -2.5396   -9.8979 O.2       9 UNK        -0.5390 
     59 N          32.0609   -0.5673  -10.9597 N.am      10 UNK        -0.4204 
     60 CA         33.4759   -0.6675  -11.3492 C.3       10 UNK         0.0237 
     61 CB         33.7162   -1.8800  -12.2738 C.3       10 UNK        -0.1985 
     62 C          34.4848   -0.6259  -10.1831 C.2       10 UNK         0.4970 
     63 O          35.6875   -0.7150  -10.4360 O.2       10 UNK        -0.4914 
     64 N          34.0051   -0.4649   -8.9444 N.am      11 UNK        -0.4285 
     65 CA         34.8274   -0.3876   -7.7251 C.3       11 UNK         0.1007 
     66 C          35.4731    1.0060   -7.4713 C.2       11 UNK         0.5703 
     67 N          35.1484    2.0430   -8.2350 N.am      11 UNK        -0.7361 
     68 O          36.2949    1.1465   -6.5686 O.2       11 UNK        -0.4986 
     69 C69        34.0506   -0.8839   -6.4776 C.3       12 UNK        -0.0947 
     70 S70        33.4432   -2.5926   -6.6841 S.3       12 UNK        -0.2240 
     71 C71        31.6462   -2.3769   -6.5055 C.3       12 UNK         0.0194 
     72 H72        23.8241   -5.2358   -4.8020 H         1 UNK         0.0906 
     73 H73        24.4088   -6.6847   -3.9799 H         1 UNK         0.0906 
     74 H74        22.7833   -6.0859   -3.6553 H         1 UNK         0.0906 
     75 H75        26.1782   -5.7556   -2.8735 H         1 UNK         0.3140 
     76 H76        25.8170   -4.5268   -0.4003 H         1 UNK         0.1085 
     77 H77        27.7485   -5.7449   -0.4353 H         1 UNK         0.0836 
     78 H78        28.4286   -4.1665   -0.6433 H         1 UNK         0.0836 
     79 H79        30.9960   -5.7781   -2.8382 H         1 UNK         0.0731 
     80 H80        30.5867   -4.9837   -1.3437 H         1 UNK         0.0731 
     81 H81        31.0621   -4.5472   -4.9861 H         1 UNK         0.1312 
     82 H82        31.3236   -0.2721   -4.7873 H         1 UNK         0.1406 
     83 H83        30.2440   -2.5210   -1.2989 H         1 UNK         0.1631 
     84 H84        31.0187    0.8861   -2.7105 H         1 UNK         0.0717 
     85 H85        31.3494   -0.0596   -1.2820 H         1 UNK         0.0717 
     86 H86        27.3590    1.8490   -2.2455 H         1 UNK         0.0934 
     87 H87        28.9571    2.4975   -2.4364 H         1 UNK         0.0934 
     88 H88        29.3461    1.2919   -4.5055 H         1 UNK         0.0739 
     89 H89        27.2952   -0.5233   -3.7379 H         1 UNK         0.3093 
     90 H90        26.5738   -1.7833   -7.0023 H         1 UNK         0.0818 
     91 H91        27.0629   -3.9574   -5.8496 H         1 UNK         0.0819 
     92 H92        28.5287   -3.1399   -6.3644 H         1 UNK         0.0819 
     93 H93        28.0675   -3.1082   -4.6772 H         1 UNK         0.0819 
     94 H94        25.7059   -2.2871   -4.2640 H         1 UNK         0.3041 
     95 H95        22.9866    0.0111   -4.3738 H         1 UNK         0.0784 
     96 H96        22.0017   -1.8426   -5.6752 H         1 UNK         0.0793 
     97 H97        22.8429   -3.0302   -4.6933 H         1 UNK         0.0793 
     98 H98        21.5917   -2.0178   -3.9758 H         1 UNK         0.0793 
     99 H99        23.7671   -2.0680   -2.5319 H         1 UNK         0.3024 
    100 H100       26.2053   -0.1540   -0.7998 H         1 UNK         0.1171 
    101 H101       24.7367   -0.4079    1.1796 H         1 UNK         0.0786 
    102 H102       24.1112    0.8514    0.1293 H         1 UNK         0.0786 
    103 H103       23.3452   -0.7315    0.1433 H         1 UNK         0.0786 
    104 H104       24.9949   -2.5936   -0.0734 H         1 UNK         0.2977 
    105 H105       25.7969    1.7674   -4.1491 H         1 UNK         0.3127 
    106 H106       25.6954    4.4432   -4.9902 H         1 UNK         0.0770 
    107 H107       23.5299    2.2791   -5.1499 H         1 UNK         0.0814 
    108 H108       23.2495    4.0125   -5.2366 H         1 UNK         0.0814 
    109 H109       23.8667    3.3009   -3.7536 H         1 UNK         0.0814 
    110 H110       25.3219    1.4526   -6.9541 H         1 UNK         0.2983 
    111 H111       24.9092    2.8250   -9.4534 H         1 UNK         0.0947 
    112 H112       25.8544   -0.0329   -8.8546 H         1 UNK         0.0806 
    113 H113       25.2838    0.5489  -10.4132 H         1 UNK         0.0806 
    114 H114       24.1772    0.4744   -9.0513 H         1 UNK         0.0806 
    115 H115       27.7332    2.2288   -7.5731 H         1 UNK         0.3000 
    116 H116       29.9229    2.3676   -7.7926 H         1 UNK         0.0850 
    117 H117       29.4835    4.7087   -8.5401 H         1 UNK         0.0810 
    118 H118       29.3982    4.1750  -10.2184 H         1 UNK         0.0810 
    119 H119       30.9078    4.0480   -9.3289 H         1 UNK         0.0810 
    120 H120       29.1726    0.0475   -8.4103 H         1 UNK         0.3040 
    121 H121       29.4045   -0.8591  -11.1018 H         1 UNK         0.0766 
    122 H122       29.0433   -3.0960  -10.0635 H         1 UNK         0.0812 
    123 H123       27.9202   -1.9048   -9.4280 H         1 UNK         0.0812 
    124 H124       29.3090   -2.4072   -8.4682 H         1 UNK         0.0812 
    125 H125       31.6118    0.3255  -11.1687 H         1 UNK         0.3205 
    126 H126       33.6757    0.2300  -11.9363 H         1 UNK         0.0754 
    127 H127       34.7251   -1.8637  -12.6880 H         1 UNK         0.0769 
    128 H128       33.0232   -1.8813  -13.1152 H         1 UNK         0.0769 
    129 H129       33.6018   -2.8252  -11.7423 H         1 UNK         0.0769 
    130 H130       33.0065   -0.4252   -8.8160 H         1 UNK         0.2981 
    131 H131       35.6701   -1.0688   -7.8587 H         1 UNK         0.0541 
    132 H132       35.5803    2.9368   -8.0613 H         1 UNK         0.3459 
    133 H133       34.4839    1.9399   -8.9841 H         1 UNK         0.3459 
    134 H134       34.6917   -0.8729   -5.5943 H         1 UNK         0.0612 
    135 H135       33.2198   -0.2123   -6.2585 H         1 UNK         0.0612 
    136 H136       31.1482   -3.1869   -7.0401 H         1 UNK         0.0624 
    137 H137       31.3203   -1.4526   -6.9851 H         1 UNK         0.0624 
@<TRIPOS>BOND
     1    1    2 1    
     2    1   72 1    
     3    1   73 1    
     4    1   74 1    
     5    2    3 2    
     6    2    4 am   BACKBONE|DICT|INTERRES
     7    4    5 1    
     8    4   75 1    
     9    5    6 1    
    10    5   35 1    
    11    5   76 1    
    12    6    7 1    
    13    6   77 1    
    14    6   78 1    
    15    7    8 1    
    16    8    9 1    
    17    8   79 1    
    18    8   80 1    
    19    9   10 ar   
    20    9   14 ar   
    21   10   11 ar   
    22   10   81 1    
    23   11   12 ar   
    24   11   71 1    
    25   12   13 ar   
    26   12   82 1    
    27   13   14 ar   
    28   13   15 1    
    29   14   83 1    
    30   15   16 1    
    31   15   84 1    
    32   15   85 1    
    33   16   17 1    
    34   17   18 1    
    35   17   86 1    
    36   17   87 1    
    37   18   19 1    
    38   18   37 1    
    39   18   88 1    
    40   19   20 am   BACKBONE|DICT|INTERRES
    41   19   89 1    
    42   20   21 2    
    43   20   22 1    
    44   22   23 1    
    45   22   24 1    
    46   22   90 1    
    47   23   91 1    
    48   23   92 1    
    49   23   93 1    
    50   24   25 am   BACKBONE|DICT|INTERRES
    51   24   94 1    
    52   25   26 2    
    53   25   27 1    
    54   27   28 1    
    55   27   29 1    
    56   27   95 1    
    57   28   96 1    
    58   28   97 1    
    59   28   98 1    
    60   29   30 am   BACKBONE|DICT|INTERRES
    61   29   99 1    
    62   30   31 2    
    63   30   32 1    
    64   32   33 1    
    65   32   34 1    
    66   32  100 1    
    67   33  101 1    
    68   33  102 1    
    69   33  103 1    
    70   34   35 am   BACKBONE|DICT|INTERRES
    71   34  104 1    
    72   35   36 2    
    73   37   38 2    
    74   37   39 am   BACKBONE|DICT|INTERRES
    75   39   40 1    
    76   39  105 1    
    77   40   41 1    
    78   40   42 1    
    79   40  106 1    
    80   41  107 1    
    81   41  108 1    
    82   41  109 1    
    83   42   43 2    
    84   42   44 am   BACKBONE|DICT|INTERRES
    85   44   45 1    
    86   44  110 1    
    87   45   46 1    
    88   45   47 1    
    89   45  111 1    
    90   46  112 1    
    91   46  113 1    
    92   46  114 1    
    93   47   48 2    
    94   47   49 am   BACKBONE|DICT|INTERRES
    95   49   50 1    
    96   49  115 1    
    97   50   51 1    
    98   50   52 1    
    99   50  116 1    
   100   51  117 1    
   101   51  118 1    
   102   51  119 1    
   103   52   53 2    
   104   52   54 am   BACKBONE|DICT|INTERRES
   105   54   55 1    
   106   54  120 1    
   107   55   56 1    
   108   55   57 1    
   109   55  121 1    
   110   56  122 1    
   111   56  123 1    
   112   56  124 1    
   113   57   58 2    
   114   57   59 am   BACKBONE|DICT|INTERRES
   115   59   60 1    
   116   59  125 1    
   117   60   61 1    
   118   60   62 1    
   119   60  126 1    
   120   61  127 1    
   121   61  128 1    
   122   61  129 1    
   123   62   63 2    
   124   62   64 am   BACKBONE|DICT|INTERRES
   125   64   65 1    
   126   64  130 1    
   127   65   66 1    
   128   65   69 1    
   129   65  131 1    
   130   66   67 am   BACKBONE|DICT|INTERRES
   131   66   68 2    
   132   67  132 1    
   133   67  133 1    
   134   69   70 1    
   135   69  134 1    
   136   69  135 1    
   137   70   71 1    
   138   71  136 1    
   139   71  137 1    
@<TRIPOS>SUBSTRUCTURE
     1 UNK         1 GROUP             0       ****    0 ROOT    
