@<TRIPOS>MOLECULE
3R137
137   139    1
SMALL
USER_CHARGES


@<TRIPOS>ATOM
      1 CA         25.5399   -6.1968   -4.6801 C.3       0 UNK        -0.2020 
      2 C          25.8273   -5.2937   -3.4907 C.2       0 UNK         0.4855 
      3 O          24.9010   -4.7133   -2.9244 O.2       0 UNK        -0.5197 
      4 N          27.1034   -5.1670   -3.1036 N.am      1 UNK        -0.4892 
      5 CA         27.5548   -4.2788   -2.0274 C.3       1 UNK         0.0835 
      6 C6         28.9981   -4.6207   -1.5829 C.3       12 UNK        -0.0855 
      7 S7         29.3796   -3.9561    0.0780 S.3       12 UNK        -0.2931 
      8 C8         31.2057   -3.9137    0.0871 C.3       12 UNK         0.0378 
      9 C9         31.7985   -3.1567   -1.0963 C.ar      12 UNK        -0.0802 
     10 C10        32.7531   -3.7761   -1.9100 C.ar      12 UNK        -0.0944 
     11 C11        33.2646   -3.1187   -3.0326 C.ar      12 UNK        -0.0787 
     12 C12        32.8427   -1.8200   -3.3201 C.ar      12 UNK        -0.0862 
     13 C13        31.8505   -1.2123   -2.5467 C.ar      12 UNK        -0.0733 
     14 C14        31.3552   -1.8685   -1.4166 C.ar      12 UNK        -0.0832 
     15 C15        31.2128    0.0788   -3.0266 C.3       12 UNK         0.0240 
     16 S16        30.1091   -0.3362   -4.4071 S.3       12 UNK        -0.2522 
     17 C17        29.1642    1.1902   -4.6691 C.3       12 UNK        -0.0967 
     18 CA         28.2785    1.0623   -5.9309 C.3       5 UNK         0.0660 
     19 N          27.4279   -0.1382   -5.9220 N.am      5 UNK        -0.4015 
     20 C          26.6493   -0.5478   -6.9351 C.2       4 UNK         0.4946 
     21 O          26.5129    0.0718   -7.9898 O.2       4 UNK        -0.5353 
     22 CA         25.8432   -1.8336   -6.7127 C.3       4 UNK         0.0277 
     23 CB         26.7378   -3.0770   -6.8500 C.3       4 UNK        -0.1981 
     24 N          25.1868   -1.8052   -5.4042 N.am      4 UNK        -0.4209 
     25 C          24.0780   -1.0901   -5.1514 C.2       3 UNK         0.4942 
     26 O          23.4205   -0.5224   -6.0238 O.2       3 UNK        -0.5208 
     27 CA         23.6336   -0.9462   -3.6838 C.3       3 UNK         0.0250 
     28 CB         22.5550   -1.9843   -3.3369 C.3       3 UNK        -0.1990 
     29 N          24.7395   -1.0446   -2.7282 N.am      3 UNK        -0.4232 
     30 C          25.7366   -0.1524   -2.6257 C.2       2 UNK         0.4993 
     31 O          25.7948    0.8819   -3.2899 O.2       2 UNK        -0.5286 
     32 CA         26.8918   -0.4907   -1.6648 C.3       2 UNK         0.0209 
     33 CB         26.6791    0.1885   -0.3032 C.3       2 UNK        -0.1931 
     34 N          27.1053   -1.9286   -1.4658 N.am      2 UNK        -0.4546 
     35 C          27.4006   -2.7981   -2.4420 C.2       1 UNK         0.5154 
     36 O          27.5143   -2.4699   -3.6267 O.2       1 UNK        -0.5181 
     37 C          27.4859    2.3606   -6.1702 C.2       5 UNK         0.5014 
     38 O          27.9929    3.2543   -6.8454 O.2       5 UNK        -0.5248 
     39 N          26.2404    2.4209   -5.6802 N.am      6 UNK        -0.4434 
     40 CA         25.2784    3.4964   -5.9377 C.3       6 UNK         0.0363 
     41 CB         23.9786    3.1937   -5.1747 C.3       6 UNK        -0.1936 
     42 C          24.9756    3.7502   -7.4305 C.2       6 UNK         0.5081 
     43 O          24.5675    4.8624   -7.7678 O.2       6 UNK        -0.5248 
     44 N          25.1786    2.7410   -8.2897 N.am      7 UNK        -0.4718 
     45 CA         25.0167    2.8352   -9.7406 C.3       7 UNK         0.0273 
     46 CB         24.0448    1.7380  -10.2103 C.3       7 UNK        -0.1935 
     47 C          26.3633    2.7107  -10.4724 C.2       7 UNK         0.5018 
     48 O          26.6415    3.5179  -11.3605 O.2       7 UNK        -0.5186 
     49 N          27.1572    1.6896  -10.1209 N.am      8 UNK        -0.4240 
     50 CA         28.3509    1.2743  -10.8631 C.3       8 UNK         0.0235 
     51 CB         28.4629   -0.2590  -10.7875 C.3       8 UNK        -0.2000 
     52 C          29.6597    1.9113  -10.3722 C.2       8 UNK         0.4941 
     53 O          30.6468    1.8561  -11.1084 O.2       8 UNK        -0.5273 
     54 N          29.6763    2.4641   -9.1494 N.am      9 UNK        -0.4262 
     55 CA         30.8281    3.0089   -8.4116 C.3       9 UNK         0.0264 
     56 CB         31.4330    4.2362   -9.1229 C.3       9 UNK        -0.1955 
     57 C          31.9060    1.9651   -8.0651 C.2       9 UNK         0.5031 
     58 O          32.1897    1.7482   -6.8861 O.2       9 UNK        -0.5390 
     59 N          32.4949    1.3442   -9.0908 N.am      10 UNK        -0.4204 
     60 CA         33.5959    0.3886   -9.0014 C.3       10 UNK         0.0237 
     61 CB         34.3787    0.4182  -10.3282 C.3       10 UNK        -0.1985 
     62 C          33.1047   -1.0235   -8.6341 C.2       10 UNK         0.4970 
     63 O          33.1946   -1.9351   -9.4595 O.2       10 UNK        -0.4914 
     64 N          32.6191   -1.1811   -7.3956 N.am      11 UNK        -0.4285 
     65 CA         32.1791   -2.4596   -6.8103 C.3       11 UNK         0.1007 
     66 C          30.8890   -3.0336   -7.4749 C.2       11 UNK         0.5703 
     67 N          30.5982   -4.3154   -7.2955 N.am      11 UNK        -0.7361 
     68 O          30.1195   -2.3175   -8.1131 O.2       11 UNK        -0.4986 
     69 C69        33.3728   -3.4630   -6.6920 C.3       12 UNK        -0.0947 
     70 S70        33.2576   -4.6577   -5.3140 S.3       12 UNK        -0.2240 
     71 C71        34.2042   -3.8444   -3.9813 C.3       12 UNK         0.0194 
     72 H72        24.8891   -5.6865   -5.3903 H         1 UNK         0.0906 
     73 H73        26.4523   -6.4842   -5.2030 H         1 UNK         0.0906 
     74 H74        25.0348   -7.1038   -4.3479 H         1 UNK         0.0906 
     75 H75        27.8311   -5.6351   -3.6244 H         1 UNK         0.3140 
     76 H76        26.8890   -4.4581   -1.1796 H         1 UNK         0.1085 
     77 H77        29.7182   -4.2676   -2.3232 H         1 UNK         0.0836 
     78 H78        29.1288   -5.7027   -1.5296 H         1 UNK         0.0836 
     79 H79        31.5732   -4.9408    0.1127 H         1 UNK         0.0731 
     80 H80        31.5433   -3.4432    1.0114 H         1 UNK         0.0731 
     81 H81        33.0713   -4.7871   -1.6940 H         1 UNK         0.1312 
     82 H82        33.2173   -1.3169   -4.2007 H         1 UNK         0.1406 
     83 H83        30.5763   -1.4077   -0.8239 H         1 UNK         0.1631 
     84 H84        31.9747    0.7866   -3.3567 H         1 UNK         0.0717 
     85 H85        30.6466    0.5586   -2.2267 H         1 UNK         0.0717 
     86 H86        28.5629    1.3991   -3.7831 H         1 UNK         0.0934 
     87 H87        29.8677    2.0188   -4.7764 H         1 UNK         0.0934 
     88 H88        28.9477    0.9438   -6.7858 H         1 UNK         0.0739 
     89 H89        27.5068   -0.7303   -5.1037 H         1 UNK         0.3093 
     90 H90        25.0777   -1.8884   -7.4902 H         1 UNK         0.0818 
     91 H91        27.5534   -3.0843   -6.1267 H         1 UNK         0.0819 
     92 H92        26.1650   -3.9945   -6.7221 H         1 UNK         0.0819 
     93 H93        27.1928   -3.1150   -7.8410 H         1 UNK         0.0819 
     94 H94        25.6997   -2.2133   -4.6302 H         1 UNK         0.3041 
     95 H95        23.1931    0.0476   -3.5760 H         1 UNK         0.0784 
     96 H96        21.6975   -1.8919   -4.0052 H         1 UNK         0.0793 
     97 H97        22.9293   -3.0040   -3.4296 H         1 UNK         0.0793 
     98 H98        22.1868   -1.8516   -2.3194 H         1 UNK         0.0793 
     99 H99        24.7792   -1.8796   -2.1606 H         1 UNK         0.3024 
    100 H100       27.8053   -0.0896   -2.1076 H         1 UNK         0.1171 
    101 H101       27.5378    0.0416    0.3525 H         1 UNK         0.0786 
    102 H102       26.5449    1.2649   -0.4213 H         1 UNK         0.0786 
    103 H103       25.7950   -0.1963    0.2070 H         1 UNK         0.0786 
    104 H104       27.0482   -2.2683   -0.5157 H         1 UNK         0.2977 
    105 H105       25.9411    1.6861   -5.0434 H         1 UNK         0.3127 
    106 H106       25.7074    4.4162   -5.5354 H         1 UNK         0.0770 
    107 H107       23.5188    2.2663   -5.5186 H         1 UNK         0.0814 
    108 H108       23.2478    3.9919   -5.3128 H         1 UNK         0.0814 
    109 H109       24.1584    3.1014   -4.1033 H         1 UNK         0.0814 
    110 H110       25.5349    1.8607   -7.9321 H         1 UNK         0.2983 
    111 H111       24.5864    3.8011  -10.0175 H         1 UNK         0.0947 
    112 H112       23.9137    1.7685  -11.2930 H         1 UNK         0.0806 
    113 H113       23.0590    1.8657   -9.7614 H         1 UNK         0.0806 
    114 H114       24.4017    0.7395   -9.9504 H         1 UNK         0.0806 
    115 H115       26.8626    1.0716   -9.3630 H         1 UNK         0.3000 
    116 H116       28.2340    1.5495  -11.9143 H         1 UNK         0.0850 
    117 H117       29.3155   -0.6210  -11.3646 H         1 UNK         0.0810 
    118 H118       27.5724   -0.7430  -11.1889 H         1 UNK         0.0810 
    119 H119       28.5967   -0.6038   -9.7603 H         1 UNK         0.0810 
    120 H120       28.8036    2.4975   -8.6344 H         1 UNK         0.3040 
    121 H121       30.4393    3.3637   -7.4573 H         1 UNK         0.0766 
    122 H122       30.6827    5.0127   -9.2718 H         1 UNK         0.0812 
    123 H123       31.8534    3.9881  -10.0977 H         1 UNK         0.0812 
    124 H124       32.2359    4.6726   -8.5272 H         1 UNK         0.0812 
    125 H125       32.1040    1.5210  -10.0148 H         1 UNK         0.3205 
    126 H126       34.2774    0.7106   -8.2108 H         1 UNK         0.0754 
    127 H127       35.2235   -0.2716  -10.3006 H         1 UNK         0.0769 
    128 H128       34.7804    1.4118  -10.5284 H         1 UNK         0.0769 
    129 H129       33.7510    0.1345  -11.1742 H         1 UNK         0.0769 
    130 H130       32.4952   -0.3525   -6.8243 H         1 UNK         0.2981 
    131 H131       31.8566   -2.2032   -5.8051 H         1 UNK         0.0541 
    132 H132       31.2128   -4.9021   -6.7510 H         1 UNK         0.3459 
    133 H133       29.7613   -4.6959   -7.7072 H         1 UNK         0.3459 
    134 H134       33.4888   -4.0248   -7.6211 H         1 UNK         0.0612 
    135 H135       34.3113   -2.9187   -6.5740 H         1 UNK         0.0612 
    136 H136       34.7649   -4.6060   -3.4374 H         1 UNK         0.0624 
    137 H137       34.9457   -3.1567   -4.3900 H         1 UNK         0.0624 
@<TRIPOS>BOND
     1    1    2 1    
     2    1   72 1    
     3    1   73 1    
     4    1   74 1    
     5    2    3 2    
     6    2    4 am   BACKBONE|DICT|INTERRES
     7    4    5 1    
     8    4   75 1    
     9    5    6 1    
    10    5   35 1    
    11    5   76 1    
    12    6    7 1    
    13    6   77 1    
    14    6   78 1    
    15    7    8 1    
    16    8    9 1    
    17    8   79 1    
    18    8   80 1    
    19    9   10 ar   
    20    9   14 ar   
    21   10   11 ar   
    22   10   81 1    
    23   11   12 ar   
    24   11   71 1    
    25   12   13 ar   
    26   12   82 1    
    27   13   14 ar   
    28   13   15 1    
    29   14   83 1    
    30   15   16 1    
    31   15   84 1    
    32   15   85 1    
    33   16   17 1    
    34   17   18 1    
    35   17   86 1    
    36   17   87 1    
    37   18   19 1    
    38   18   37 1    
    39   18   88 1    
    40   19   20 am   BACKBONE|DICT|INTERRES
    41   19   89 1    
    42   20   21 2    
    43   20   22 1    
    44   22   23 1    
    45   22   24 1    
    46   22   90 1    
    47   23   91 1    
    48   23   92 1    
    49   23   93 1    
    50   24   25 am   BACKBONE|DICT|INTERRES
    51   24   94 1    
    52   25   26 2    
    53   25   27 1    
    54   27   28 1    
    55   27   29 1    
    56   27   95 1    
    57   28   96 1    
    58   28   97 1    
    59   28   98 1    
    60   29   30 am   BACKBONE|DICT|INTERRES
    61   29   99 1    
    62   30   31 2    
    63   30   32 1    
    64   32   33 1    
    65   32   34 1    
    66   32  100 1    
    67   33  101 1    
    68   33  102 1    
    69   33  103 1    
    70   34   35 am   BACKBONE|DICT|INTERRES
    71   34  104 1    
    72   35   36 2    
    73   37   38 2    
    74   37   39 am   BACKBONE|DICT|INTERRES
    75   39   40 1    
    76   39  105 1    
    77   40   41 1    
    78   40   42 1    
    79   40  106 1    
    80   41  107 1    
    81   41  108 1    
    82   41  109 1    
    83   42   43 2    
    84   42   44 am   BACKBONE|DICT|INTERRES
    85   44   45 1    
    86   44  110 1    
    87   45   46 1    
    88   45   47 1    
    89   45  111 1    
    90   46  112 1    
    91   46  113 1    
    92   46  114 1    
    93   47   48 2    
    94   47   49 am   BACKBONE|DICT|INTERRES
    95   49   50 1    
    96   49  115 1    
    97   50   51 1    
    98   50   52 1    
    99   50  116 1    
   100   51  117 1    
   101   51  118 1    
   102   51  119 1    
   103   52   53 2    
   104   52   54 am   BACKBONE|DICT|INTERRES
   105   54   55 1    
   106   54  120 1    
   107   55   56 1    
   108   55   57 1    
   109   55  121 1    
   110   56  122 1    
   111   56  123 1    
   112   56  124 1    
   113   57   58 2    
   114   57   59 am   BACKBONE|DICT|INTERRES
   115   59   60 1    
   116   59  125 1    
   117   60   61 1    
   118   60   62 1    
   119   60  126 1    
   120   61  127 1    
   121   61  128 1    
   122   61  129 1    
   123   62   63 2    
   124   62   64 am   BACKBONE|DICT|INTERRES
   125   64   65 1    
   126   64  130 1    
   127   65   66 1    
   128   65   69 1    
   129   65  131 1    
   130   66   67 am   BACKBONE|DICT|INTERRES
   131   66   68 2    
   132   67  132 1    
   133   67  133 1    
   134   69   70 1    
   135   69  134 1    
   136   69  135 1    
   137   70   71 1    
   138   71  136 1    
   139   71  137 1    
@<TRIPOS>SUBSTRUCTURE
     1 UNK         1 GROUP             0       ****    0 ROOT    
