@<TRIPOS>MOLECULE
3R137
137   139    1
SMALL
USER_CHARGES


@<TRIPOS>ATOM
      1 CA         22.4732   -4.7433   -3.9565 C.3       0 UNK        -0.2020 
      2 C          23.6645   -4.6228   -3.0191 C.2       0 UNK         0.4855 
      3 O          23.4791   -4.3900   -1.8237 O.2       0 UNK        -0.5197 
      4 N          24.8883   -4.7759   -3.5459 N.am      1 UNK        -0.4892 
      5 CA         26.1417   -4.6566   -2.7921 C.3       1 UNK         0.0835 
      6 C6         27.3694   -5.0459   -3.6490 C.3       12 UNK        -0.0855 
      7 S7         28.8220   -5.4070   -2.6066 S.3       12 UNK        -0.2931 
      8 C8         30.1963   -4.9779   -3.7254 C.3       12 UNK         0.0378 
      9 C9         30.3173   -3.4891   -4.0478 C.ar      12 UNK        -0.0802 
     10 C10        30.6497   -3.0992   -5.3493 C.ar      12 UNK        -0.0944 
     11 C11        30.8587   -1.7519   -5.6627 C.ar      12 UNK        -0.0787 
     12 C12        30.7145   -0.7886   -4.6640 C.ar      12 UNK        -0.0862 
     13 C13        30.3367   -1.1538   -3.3698 C.ar      12 UNK        -0.0733 
     14 C14        30.1542   -2.5065   -3.0622 C.ar      12 UNK        -0.0832 
     15 C15        30.1316   -0.0824   -2.3087 C.3       12 UNK         0.0240 
     16 S16        28.4157    0.5327   -2.2859 S.3       12 UNK        -0.2522 
     17 C17        28.3033    1.4668   -3.8480 C.3       12 UNK        -0.0967 
     18 CA         27.5322    0.6953   -4.9496 C.3       5 UNK         0.0660 
     19 N          26.1293    0.4505   -4.5743 N.am      5 UNK        -0.4015 
     20 C          25.2228   -0.1874   -5.3309 C.2       4 UNK         0.4946 
     21 O          25.4664   -0.6212   -6.4579 O.2       4 UNK        -0.5353 
     22 CA         23.8044   -0.3333   -4.7583 C.3       4 UNK         0.0277 
     23 CB         22.9676   -1.3885   -5.5098 C.3       4 UNK        -0.1981 
     24 N          23.8182   -0.6416   -3.3259 N.am      4 UNK        -0.4209 
     25 C          22.8838   -0.2181   -2.4595 C.2       3 UNK         0.4942 
     26 O          21.9777    0.5556   -2.7736 O.2       3 UNK        -0.5208 
     27 CA         22.9173   -0.7433   -1.0108 C.3       3 UNK         0.0250 
     28 CB         21.6854   -1.6209   -0.7288 C.3       3 UNK        -0.1990 
     29 N          24.1242   -1.5076   -0.6961 N.am      3 UNK        -0.4232 
     30 C          25.2788   -0.9624   -0.2867 C.2       2 UNK         0.4993 
     31 O          25.4203    0.2401   -0.0633 O.2       2 UNK        -0.5286 
     32 CA         26.4860   -1.9049   -0.1034 C.3       2 UNK         0.0209 
     33 CB         26.6831   -2.2405    1.3837 C.3       2 UNK        -0.1931 
     34 N          26.4136   -3.1539   -0.8701 N.am      2 UNK        -0.4546 
     35 C          26.2838   -3.2406   -2.2013 C.2       1 UNK         0.5154 
     36 O          26.2086   -2.2651   -2.9493 O.2       1 UNK        -0.5181 
     37 C          27.6775    1.4294   -6.3001 C.2       5 UNK         0.5014 
     38 O          28.5621    1.0958   -7.0921 O.2       5 UNK        -0.5248 
     39 N          26.7717    2.3857   -6.5519 N.am      6 UNK        -0.4434 
     40 CA         26.6862    3.2050   -7.7632 C.3       6 UNK         0.0363 
     41 CB         25.6433    4.3124   -7.5363 C.3       6 UNK        -0.1936 
     42 C          26.3798    2.4320   -9.0620 C.2       6 UNK         0.5081 
     43 O          26.4797    3.0269  -10.1353 O.2       6 UNK        -0.5248 
     44 N          26.0332    1.1374   -8.9716 N.am      7 UNK        -0.4718 
     45 CA         25.8354    0.2484  -10.1228 C.3       7 UNK         0.0273 
     46 CB         25.2411   -1.0856   -9.6444 C.3       7 UNK        -0.1935 
     47 C          27.1175    0.0018  -10.9424 C.2       7 UNK         0.5018 
     48 O          27.0126   -0.3369  -12.1223 O.2       7 UNK        -0.5186 
     49 N          28.2901    0.1910  -10.3211 N.am      8 UNK        -0.4240 
     50 CA         29.5931    0.1626  -10.9898 C.3       8 UNK         0.0235 
     51 CB         30.1979   -1.2507  -10.9398 C.3       8 UNK        -0.2000 
     52 C          30.5644    1.2194  -10.4430 C.2       8 UNK         0.4941 
     53 O          31.4010    1.6942  -11.2128 O.2       8 UNK        -0.5273 
     54 N          30.4429    1.5907   -9.1568 N.am      9 UNK        -0.4262 
     55 CA         31.2032    2.6117   -8.4206 C.3       9 UNK         0.0264 
     56 CB         30.9619    4.0199   -8.9991 C.3       9 UNK        -0.1955 
     57 C          32.7056    2.3172   -8.2653 C.2       9 UNK         0.5031 
     58 O          33.1936    2.2368   -7.1372 O.2       9 UNK        -0.5390 
     59 N          33.4150    2.1495   -9.3856 N.am      10 UNK        -0.4204 
     60 CA         34.8631    1.9473   -9.4827 C.3       10 UNK         0.0237 
     61 CB         35.3283    2.3976  -10.8807 C.3       10 UNK        -0.1985 
     62 C          35.3010    0.5065   -9.1457 C.2       10 UNK         0.4970 
     63 O          36.0942   -0.0828   -9.8825 O.2       10 UNK        -0.4914 
     64 N          34.7841   -0.0337   -8.0375 N.am      11 UNK        -0.4285 
     65 CA         35.1311   -1.3608   -7.5047 C.3       11 UNK         0.1007 
     66 C          36.4202   -1.3726   -6.6320 C.2       11 UNK         0.5703 
     67 N          37.0162   -0.2324   -6.3011 N.am      11 UNK        -0.7361 
     68 O          36.8995   -2.4409   -6.2593 O.2       11 UNK        -0.4986 
     69 C69        33.9371   -2.0038   -6.7548 C.3       12 UNK        -0.0947 
     70 S70        32.5158   -2.3169   -7.8560 S.3       12 UNK        -0.2240 
     71 C71        31.2101   -1.3114   -7.0785 C.3       12 UNK         0.0194 
     72 H72        21.8559   -5.5937   -3.6685 H         1 UNK         0.0906 
     73 H73        22.7801   -4.8812   -4.9930 H         1 UNK         0.0906 
     74 H74        21.8600   -3.8443   -3.8997 H         1 UNK         0.0906 
     75 H75        24.9855   -4.9384   -4.5380 H         1 UNK         0.3140 
     76 H76        26.0665   -5.3702   -1.9681 H         1 UNK         0.1085 
     77 H77        27.6039   -4.2655   -4.3765 H         1 UNK         0.0836 
     78 H78        27.1557   -5.9461   -4.2276 H         1 UNK         0.0836 
     79 H79        31.1299   -5.3027   -3.2645 H         1 UNK         0.0731 
     80 H80        30.0881   -5.5624   -4.6406 H         1 UNK         0.0731 
     81 H81        30.7680   -3.8485   -6.1199 H         1 UNK         0.1312 
     82 H82        30.8747    0.2529   -4.9043 H         1 UNK         0.1406 
     83 H83        29.8860   -2.7933   -2.0546 H         1 UNK         0.1631 
     84 H84        30.3695   -0.4878   -1.3241 H         1 UNK         0.0717 
     85 H85        30.8190    0.7501   -2.4666 H         1 UNK         0.0717 
     86 H86        27.8097    2.4167   -3.6343 H         1 UNK         0.0934 
     87 H87        29.3089    1.7324   -4.1767 H         1 UNK         0.0934 
     88 H88        27.9918   -0.2867   -5.0763 H         1 UNK         0.0739 
     89 H89        25.8636    0.7407   -3.6446 H         1 UNK         0.3093 
     90 H90        23.3327    0.6393   -4.9129 H         1 UNK         0.0818 
     91 H91        22.8697   -1.1330   -6.5657 H         1 UNK         0.0819 
     92 H92        23.4315   -2.3733   -5.4551 H         1 UNK         0.0819 
     93 H93        21.9591   -1.4647   -5.1036 H         1 UNK         0.0819 
     94 H94        24.5739   -1.2481   -3.0121 H         1 UNK         0.3041 
     95 H95        22.8637    0.1260   -0.3518 H         1 UNK         0.0784 
     96 H96        20.7627   -1.0562   -0.8700 H         1 UNK         0.0793 
     97 H97        21.6413   -2.4835   -1.3941 H         1 UNK         0.0793 
     98 H98        21.6844   -1.9877    0.2978 H         1 UNK         0.0793 
     99 H99        24.0863   -2.5059   -0.8726 H         1 UNK         0.3024 
    100 H100       27.3686   -1.3654   -0.4481 H         1 UNK         0.1171 
    101 H101       26.7731   -1.3315    1.9804 H         1 UNK         0.0786 
    102 H102       25.8437   -2.8110    1.7833 H         1 UNK         0.0786 
    103 H103       27.5924   -2.8203    1.5437 H         1 UNK         0.0786 
    104 H104       26.4446   -4.0086   -0.3327 H         1 UNK         0.2977 
    105 H105       26.0718    2.5641   -5.8467 H         1 UNK         0.3127 
    106 H106       27.6603    3.6780   -7.9039 H         1 UNK         0.0770 
    107 H107       24.6468    3.9001   -7.3730 H         1 UNK         0.0814 
    108 H108       25.5824    4.9770   -8.3994 H         1 UNK         0.0814 
    109 H109       25.8988    4.9305   -6.6754 H         1 UNK         0.0814 
    110 H110       25.9587    0.7082   -8.0546 H         1 UNK         0.2983 
    111 H111       25.1130    0.7246  -10.7895 H         1 UNK         0.0947 
    112 H112       25.9244   -1.6140   -8.9781 H         1 UNK         0.0806 
    113 H113       25.0317   -1.7455  -10.4873 H         1 UNK         0.0806 
    114 H114       24.3031   -0.9347   -9.1097 H         1 UNK         0.0806 
    115 H115       28.2638    0.4776   -9.3518 H         1 UNK         0.3000 
    116 H116       29.4504    0.4228  -12.0414 H         1 UNK         0.0850 
    117 H117       31.1983   -1.2666  -11.3747 H         1 UNK         0.0810 
    118 H118       29.5894   -1.9575  -11.5041 H         1 UNK         0.0810 
    119 H119       30.2783   -1.6245   -9.9216 H         1 UNK         0.0810 
    120 H120       29.7466    1.1364   -8.5729 H         1 UNK         0.3040 
    121 H121       30.7880    2.6085   -7.4114 H         1 UNK         0.0766 
    122 H122       31.3377    4.1177  -10.0179 H         1 UNK         0.0812 
    123 H123       31.4616    4.7789   -8.3958 H         1 UNK         0.0812 
    124 H124       29.8999    4.2645   -9.0118 H         1 UNK         0.0812 
    125 H125       32.8832    2.1232  -10.2551 H         1 UNK         0.3205 
    126 H126       35.3464    2.5980   -8.7509 H         1 UNK         0.0754 
    127 H127       36.4130    2.3309  -10.9765 H         1 UNK         0.0769 
    128 H128       35.0531    3.4344  -11.0751 H         1 UNK         0.0769 
    129 H129       34.8903    1.7816  -11.6673 H         1 UNK         0.0769 
    130 H130       34.1602    0.5375   -7.4773 H         1 UNK         0.2981 
    131 H131       35.3585   -2.0119   -8.3510 H         1 UNK         0.0541 
    132 H132       37.8539   -0.2586   -5.7412 H         1 UNK         0.3459 
    133 H133       36.6345    0.6508   -6.5980 H         1 UNK         0.3459 
    134 H134       33.6344   -1.3751   -5.9158 H         1 UNK         0.0612 
    135 H135       34.2211   -2.9662   -6.3251 H         1 UNK         0.0612 
    136 H136       31.5271   -0.2682   -7.0921 H         1 UNK         0.0624 
    137 H137       30.3040   -1.3665   -7.6806 H         1 UNK         0.0624 
@<TRIPOS>BOND
     1    1    2 1    
     2    1   72 1    
     3    1   73 1    
     4    1   74 1    
     5    2    3 2    
     6    2    4 am   BACKBONE|DICT|INTERRES
     7    4    5 1    
     8    4   75 1    
     9    5    6 1    
    10    5   35 1    
    11    5   76 1    
    12    6    7 1    
    13    6   77 1    
    14    6   78 1    
    15    7    8 1    
    16    8    9 1    
    17    8   79 1    
    18    8   80 1    
    19    9   10 ar   
    20    9   14 ar   
    21   10   11 ar   
    22   10   81 1    
    23   11   12 ar   
    24   11   71 1    
    25   12   13 ar   
    26   12   82 1    
    27   13   14 ar   
    28   13   15 1    
    29   14   83 1    
    30   15   16 1    
    31   15   84 1    
    32   15   85 1    
    33   16   17 1    
    34   17   18 1    
    35   17   86 1    
    36   17   87 1    
    37   18   19 1    
    38   18   37 1    
    39   18   88 1    
    40   19   20 am   BACKBONE|DICT|INTERRES
    41   19   89 1    
    42   20   21 2    
    43   20   22 1    
    44   22   23 1    
    45   22   24 1    
    46   22   90 1    
    47   23   91 1    
    48   23   92 1    
    49   23   93 1    
    50   24   25 am   BACKBONE|DICT|INTERRES
    51   24   94 1    
    52   25   26 2    
    53   25   27 1    
    54   27   28 1    
    55   27   29 1    
    56   27   95 1    
    57   28   96 1    
    58   28   97 1    
    59   28   98 1    
    60   29   30 am   BACKBONE|DICT|INTERRES
    61   29   99 1    
    62   30   31 2    
    63   30   32 1    
    64   32   33 1    
    65   32   34 1    
    66   32  100 1    
    67   33  101 1    
    68   33  102 1    
    69   33  103 1    
    70   34   35 am   BACKBONE|DICT|INTERRES
    71   34  104 1    
    72   35   36 2    
    73   37   38 2    
    74   37   39 am   BACKBONE|DICT|INTERRES
    75   39   40 1    
    76   39  105 1    
    77   40   41 1    
    78   40   42 1    
    79   40  106 1    
    80   41  107 1    
    81   41  108 1    
    82   41  109 1    
    83   42   43 2    
    84   42   44 am   BACKBONE|DICT|INTERRES
    85   44   45 1    
    86   44  110 1    
    87   45   46 1    
    88   45   47 1    
    89   45  111 1    
    90   46  112 1    
    91   46  113 1    
    92   46  114 1    
    93   47   48 2    
    94   47   49 am   BACKBONE|DICT|INTERRES
    95   49   50 1    
    96   49  115 1    
    97   50   51 1    
    98   50   52 1    
    99   50  116 1    
   100   51  117 1    
   101   51  118 1    
   102   51  119 1    
   103   52   53 2    
   104   52   54 am   BACKBONE|DICT|INTERRES
   105   54   55 1    
   106   54  120 1    
   107   55   56 1    
   108   55   57 1    
   109   55  121 1    
   110   56  122 1    
   111   56  123 1    
   112   56  124 1    
   113   57   58 2    
   114   57   59 am   BACKBONE|DICT|INTERRES
   115   59   60 1    
   116   59  125 1    
   117   60   61 1    
   118   60   62 1    
   119   60  126 1    
   120   61  127 1    
   121   61  128 1    
   122   61  129 1    
   123   62   63 2    
   124   62   64 am   BACKBONE|DICT|INTERRES
   125   64   65 1    
   126   64  130 1    
   127   65   66 1    
   128   65   69 1    
   129   65  131 1    
   130   66   67 am   BACKBONE|DICT|INTERRES
   131   66   68 2    
   132   67  132 1    
   133   67  133 1    
   134   69   70 1    
   135   69  134 1    
   136   69  135 1    
   137   70   71 1    
   138   71  136 1    
   139   71  137 1    
@<TRIPOS>SUBSTRUCTURE
     1 UNK         1 GROUP             0       ****    0 ROOT    
