@<TRIPOS>MOLECULE
3R137
137   139    1
SMALL
USER_CHARGES


@<TRIPOS>ATOM
      1 CA         24.4595   -5.8360   -0.3393 C.3       0 UNK        -0.2020 
      2 C          25.4668   -4.7292   -0.6116 C.2       0 UNK         0.4855 
      3 O          25.6297   -3.8320    0.2148 O.2       0 UNK        -0.5197 
      4 N          26.1379   -4.7782   -1.7696 N.am      1 UNK        -0.4892 
      5 CA         27.1702   -3.8176   -2.1839 C.3       1 UNK         0.0835 
      6 C6         28.1972   -4.4556   -3.1568 C.3       12 UNK        -0.0855 
      7 S7         29.1620   -5.8231   -2.4264 S.3       12 UNK        -0.2931 
      8 C8         30.2421   -4.9828   -1.2141 C.3       12 UNK         0.0378 
      9 C9         30.9930   -3.7894   -1.7943 C.ar      12 UNK        -0.0802 
     10 C10        32.1267   -3.9769   -2.5878 C.ar      12 UNK        -0.0944 
     11 C11        32.8161   -2.8778   -3.1098 C.ar      12 UNK        -0.0787 
     12 C12        32.3551   -1.5841   -2.8424 C.ar      12 UNK        -0.0862 
     13 C13        31.2114   -1.3754   -2.0618 C.ar      12 UNK        -0.0733 
     14 C14        30.5526   -2.4909   -1.5256 C.ar      12 UNK        -0.0832 
     15 C15        30.7194    0.0615   -1.8468 C.3       12 UNK         0.0240 
     16 S16        29.0988    0.2092   -0.9947 S.3       12 UNK        -0.2522 
     17 C17        28.1051    1.5044   -1.8285 C.3       12 UNK        -0.0967 
     18 CA         28.4446    1.8832   -3.2924 C.3       5 UNK         0.0660 
     19 N          28.4273    0.7290   -4.1952 N.am      5 UNK        -0.4015 
     20 C          28.9958    0.7239   -5.4089 C.2       4 UNK         0.4946 
     21 O          29.4708    1.7247   -5.9431 O.2       4 UNK        -0.5353 
     22 CA         29.0626   -0.6199   -6.1446 C.3       4 UNK         0.0277 
     23 CB         30.0914   -1.5500   -5.4879 C.3       4 UNK        -0.1981 
     24 N          27.7618   -1.2765   -6.1624 N.am      4 UNK        -0.4209 
     25 C          26.8857   -1.1808   -7.1688 C.2       3 UNK         0.4942 
     26 O          27.1078   -0.5640   -8.2090 O.2       3 UNK        -0.5208 
     27 CA         25.5231   -1.8731   -6.9828 C.3       3 UNK         0.0250 
     28 CB         25.5699   -3.2960   -7.5607 C.3       3 UNK        -0.1990 
     29 N          25.0763   -1.9265   -5.5892 N.am      3 UNK        -0.4232 
     30 C          24.8778   -0.8593   -4.8018 C.2       2 UNK         0.4993 
     31 O          24.9991    0.3071   -5.1805 O.2       2 UNK        -0.5286 
     32 CA         24.5775   -1.1489   -3.3210 C.3       2 UNK         0.0209 
     33 CB         23.0641   -1.2811   -3.0930 C.3       2 UNK        -0.1931 
     34 N          25.2636   -2.3415   -2.7998 N.am      2 UNK        -0.4546 
     35 C          26.5951   -2.5129   -2.7804 C.2       1 UNK         0.5154 
     36 O          27.3732   -1.6844   -3.2551 O.2       1 UNK        -0.5181 
     37 C          27.5309    3.0336   -3.7612 C.2       5 UNK         0.5014 
     38 O          27.9040    4.1928   -3.5706 O.2       5 UNK        -0.5248 
     39 N          26.3562    2.7153   -4.3255 N.am      6 UNK        -0.4434 
     40 CA         25.3551    3.7051   -4.7286 C.3       6 UNK         0.0363 
     41 CB         23.9833    3.3396   -4.1337 C.3       6 UNK        -0.1936 
     42 C          25.2778    3.8332   -6.2534 C.2       6 UNK         0.5081 
     43 O          25.3567    4.9514   -6.7631 O.2       6 UNK        -0.5248 
     44 N          25.1104    2.7053   -6.9598 N.am      7 UNK        -0.4718 
     45 CA         24.9030    2.7010   -8.4146 C.3       7 UNK         0.0273 
     46 CB         24.1832    1.4116   -8.8367 C.3       7 UNK        -0.1935 
     47 C          26.1946    2.8922   -9.2298 C.2       7 UNK         0.5018 
     48 O          26.1067    3.3198  -10.3816 O.2       7 UNK        -0.5186 
     49 N          27.3531    2.5724   -8.6312 N.am      8 UNK        -0.4240 
     50 CA         28.7022    2.6427   -9.2119 C.3       8 UNK         0.0235 
     51 CB         29.1190    4.1105   -9.4457 C.3       8 UNK        -0.2000 
     52 C          28.8863    1.7573  -10.4626 C.2       8 UNK         0.4941 
     53 O          29.6168    2.1319  -11.3819 O.2       8 UNK        -0.5273 
     54 N          28.2316    0.5891  -10.4714 N.am      9 UNK        -0.4262 
     55 CA         28.3060   -0.4124  -11.5377 C.3       9 UNK         0.0264 
     56 CB         26.9690   -1.1717  -11.5920 C.3       9 UNK        -0.1955 
     57 C          29.4773   -1.3948  -11.3493 C.2       9 UNK         0.5031 
     58 O          29.7593   -2.1720  -12.2629 O.2       9 UNK        -0.5390 
     59 N          30.1294   -1.3578  -10.1826 N.am      10 UNK        -0.4204 
     60 CA         31.2654   -2.1885   -9.7998 C.3       10 UNK         0.0237 
     61 CB         30.7504   -3.4832   -9.1436 C.3       10 UNK        -0.1985 
     62 C          32.1635   -1.3925   -8.8442 C.2       10 UNK         0.4970 
     63 O          31.7295   -0.3663   -8.3142 O.2       10 UNK        -0.4914 
     64 N          33.3869   -1.8949   -8.6374 N.am      11 UNK        -0.4285 
     65 CA         34.4245   -1.3237   -7.7597 C.3       11 UNK         0.1007 
     66 C          34.9003    0.0915   -8.2170 C.2       11 UNK         0.5703 
     67 N          35.4566    0.9075   -7.3304 N.am      11 UNK        -0.7361 
     68 O          34.8269    0.4389   -9.3950 O.2       11 UNK        -0.4986 
     69 C69        34.0564   -1.4216   -6.2468 C.3       12 UNK        -0.0947 
     70 S70        33.6807   -3.1341   -5.7314 S.3       12 UNK        -0.2240 
     71 C71        34.0647   -3.0966   -3.9519 C.3       12 UNK         0.0194 
     72 H72        23.4645   -5.4135   -0.2020 H         1 UNK         0.0906 
     73 H73        24.4128   -6.5562   -1.1560 H         1 UNK         0.0906 
     74 H74        24.7299   -6.3726    0.5698 H         1 UNK         0.0906 
     75 H75        25.9741   -5.5451   -2.4074 H         1 UNK         0.3140 
     76 H76        27.7093   -3.5016   -1.2902 H         1 UNK         0.1085 
     77 H77        28.9079   -3.7197   -3.5324 H         1 UNK         0.0836 
     78 H78        27.6869   -4.8390   -4.0421 H         1 UNK         0.0836 
     79 H79        30.9610   -5.7070   -0.8280 H         1 UNK         0.0731 
     80 H80        29.6412   -4.6767   -0.3565 H         1 UNK         0.0731 
     81 H81        32.4717   -4.9802   -2.7979 H         1 UNK         0.1312 
     82 H82        32.8823   -0.7363   -3.2585 H         1 UNK         0.1406 
     83 H83        29.6806   -2.3632   -0.9034 H         1 UNK         0.1631 
     84 H84        30.7034    0.5514   -2.8162 H         1 UNK         0.0717 
     85 H85        31.4606    0.5975   -1.2528 H         1 UNK         0.0717 
     86 H86        27.0638    1.1816   -1.7660 H         1 UNK         0.0934 
     87 H87        28.1706    2.3935   -1.1977 H         1 UNK         0.0934 
     88 H88        29.4553    2.2952   -3.3020 H         1 UNK         0.0739 
     89 H89        28.0658   -0.1429   -3.8093 H         1 UNK         0.3093 
     90 H90        29.3929   -0.4239   -7.1656 H         1 UNK         0.0818 
     91 H91        29.8155   -1.8050   -4.4663 H         1 UNK         0.0819 
     92 H92        30.2095   -2.4794   -6.0431 H         1 UNK         0.0819 
     93 H93        31.0679   -1.0716   -5.4475 H         1 UNK         0.0819 
     94 H94        27.4789   -1.7386   -5.3067 H         1 UNK         0.3041 
     95 H95        24.7775   -1.3055   -7.5393 H         1 UNK         0.0784 
     96 H96        25.8756   -3.2809   -8.6080 H         1 UNK         0.0793 
     97 H97        26.2786   -3.9282   -7.0240 H         1 UNK         0.0793 
     98 H98        24.5914   -3.7749   -7.5186 H         1 UNK         0.0793 
     99 H99        24.9527   -2.8429   -5.1844 H         1 UNK         0.3024 
    100 H100       24.9358   -0.2896   -2.7497 H         1 UNK         0.1171 
    101 H101       22.8302   -1.3836   -2.0331 H         1 UNK         0.0786 
    102 H102       22.5368   -0.3969   -3.4547 H         1 UNK         0.0786 
    103 H103       22.6493   -2.1447   -3.6142 H         1 UNK         0.0786 
    104 H104       24.6893   -3.0632   -2.3887 H         1 UNK         0.2977 
    105 H105       26.1177    1.7423   -4.4960 H         1 UNK         0.3127 
    106 H106       25.6154    4.6909   -4.3371 H         1 UNK         0.0770 
    107 H107       23.6116    2.3833   -4.5005 H         1 UNK         0.0814 
    108 H108       23.2380    4.0939   -4.3895 H         1 UNK         0.0814 
    109 H109       24.0271    3.2850   -3.0460 H         1 UNK         0.0814 
    110 H110       25.0391    1.8187   -6.4674 H         1 UNK         0.2983 
    111 H111       24.2429    3.5357   -8.6625 H         1 UNK         0.0947 
    112 H112       23.8405    1.4842   -9.8697 H         1 UNK         0.0806 
    113 H113       23.3087    1.2134   -8.2168 H         1 UNK         0.0806 
    114 H114       24.8427    0.5492   -8.7844 H         1 UNK         0.0806 
    115 H115       27.3017    2.2096   -7.6896 H         1 UNK         0.3000 
    116 H116       29.3798    2.2294   -8.4650 H         1 UNK         0.0850 
    117 H117       30.1657    4.1775   -9.7449 H         1 UNK         0.0810 
    118 H118       29.0049    4.7030   -8.5379 H         1 UNK         0.0810 
    119 H119       28.5255    4.5799  -10.2308 H         1 UNK         0.0810 
    120 H120       27.6900    0.3222   -9.6482 H         1 UNK         0.3040 
    121 H121       28.4503    0.0919  -12.4955 H         1 UNK         0.0766 
    122 H122       26.1321   -0.4904  -11.7465 H         1 UNK         0.0812 
    123 H123       26.7829   -1.7278  -10.6724 H         1 UNK         0.0812 
    124 H124       26.9596   -1.8888  -12.4139 H         1 UNK         0.0812 
    125 H125       29.8876   -0.6433   -9.5083 H         1 UNK         0.3205 
    126 H126       31.8536   -2.4342  -10.6867 H         1 UNK         0.0754 
    127 H127       31.5727   -4.1102   -8.7966 H         1 UNK         0.0769 
    128 H128       30.1676   -4.0765   -9.8484 H         1 UNK         0.0769 
    129 H129       30.1138   -3.2714   -8.2842 H         1 UNK         0.0769 
    130 H130       33.6570   -2.7313   -9.1333 H         1 UNK         0.2981 
    131 H131       35.2987   -1.9569   -7.9143 H         1 UNK         0.0541 
    132 H132       35.5527    0.6415   -6.3637 H         1 UNK         0.3459 
    133 H133       35.7830    1.8106   -7.6368 H         1 UNK         0.3459 
    134 H134       33.2106   -0.7771   -6.0108 H         1 UNK         0.0612 
    135 H135       34.8890   -1.0691   -5.6377 H         1 UNK         0.0612 
    136 H136       34.8092   -2.3309   -3.7313 H         1 UNK         0.0624 
    137 H137       34.5281   -4.0469   -3.6826 H         1 UNK         0.0624 
@<TRIPOS>BOND
     1    1    2 1    
     2    1   72 1    
     3    1   73 1    
     4    1   74 1    
     5    2    3 2    
     6    2    4 am   BACKBONE|DICT|INTERRES
     7    4    5 1    
     8    4   75 1    
     9    5    6 1    
    10    5   35 1    
    11    5   76 1    
    12    6    7 1    
    13    6   77 1    
    14    6   78 1    
    15    7    8 1    
    16    8    9 1    
    17    8   79 1    
    18    8   80 1    
    19    9   10 ar   
    20    9   14 ar   
    21   10   11 ar   
    22   10   81 1    
    23   11   12 ar   
    24   11   71 1    
    25   12   13 ar   
    26   12   82 1    
    27   13   14 ar   
    28   13   15 1    
    29   14   83 1    
    30   15   16 1    
    31   15   84 1    
    32   15   85 1    
    33   16   17 1    
    34   17   18 1    
    35   17   86 1    
    36   17   87 1    
    37   18   19 1    
    38   18   37 1    
    39   18   88 1    
    40   19   20 am   BACKBONE|DICT|INTERRES
    41   19   89 1    
    42   20   21 2    
    43   20   22 1    
    44   22   23 1    
    45   22   24 1    
    46   22   90 1    
    47   23   91 1    
    48   23   92 1    
    49   23   93 1    
    50   24   25 am   BACKBONE|DICT|INTERRES
    51   24   94 1    
    52   25   26 2    
    53   25   27 1    
    54   27   28 1    
    55   27   29 1    
    56   27   95 1    
    57   28   96 1    
    58   28   97 1    
    59   28   98 1    
    60   29   30 am   BACKBONE|DICT|INTERRES
    61   29   99 1    
    62   30   31 2    
    63   30   32 1    
    64   32   33 1    
    65   32   34 1    
    66   32  100 1    
    67   33  101 1    
    68   33  102 1    
    69   33  103 1    
    70   34   35 am   BACKBONE|DICT|INTERRES
    71   34  104 1    
    72   35   36 2    
    73   37   38 2    
    74   37   39 am   BACKBONE|DICT|INTERRES
    75   39   40 1    
    76   39  105 1    
    77   40   41 1    
    78   40   42 1    
    79   40  106 1    
    80   41  107 1    
    81   41  108 1    
    82   41  109 1    
    83   42   43 2    
    84   42   44 am   BACKBONE|DICT|INTERRES
    85   44   45 1    
    86   44  110 1    
    87   45   46 1    
    88   45   47 1    
    89   45  111 1    
    90   46  112 1    
    91   46  113 1    
    92   46  114 1    
    93   47   48 2    
    94   47   49 am   BACKBONE|DICT|INTERRES
    95   49   50 1    
    96   49  115 1    
    97   50   51 1    
    98   50   52 1    
    99   50  116 1    
   100   51  117 1    
   101   51  118 1    
   102   51  119 1    
   103   52   53 2    
   104   52   54 am   BACKBONE|DICT|INTERRES
   105   54   55 1    
   106   54  120 1    
   107   55   56 1    
   108   55   57 1    
   109   55  121 1    
   110   56  122 1    
   111   56  123 1    
   112   56  124 1    
   113   57   58 2    
   114   57   59 am   BACKBONE|DICT|INTERRES
   115   59   60 1    
   116   59  125 1    
   117   60   61 1    
   118   60   62 1    
   119   60  126 1    
   120   61  127 1    
   121   61  128 1    
   122   61  129 1    
   123   62   63 2    
   124   62   64 am   BACKBONE|DICT|INTERRES
   125   64   65 1    
   126   64  130 1    
   127   65   66 1    
   128   65   69 1    
   129   65  131 1    
   130   66   67 am   BACKBONE|DICT|INTERRES
   131   66   68 2    
   132   67  132 1    
   133   67  133 1    
   134   69   70 1    
   135   69  134 1    
   136   69  135 1    
   137   70   71 1    
   138   71  136 1    
   139   71  137 1    
@<TRIPOS>SUBSTRUCTURE
     1 UNK         1 GROUP             0       ****    0 ROOT    
