@<TRIPOS>MOLECULE
3R137
137   139    1
SMALL
USER_CHARGES


@<TRIPOS>ATOM
      1 CA         26.8010   -6.7862   -4.0033 C.3       0 UNK        -0.2020 
      2 C          26.8382   -6.0395   -2.6783 C.2       0 UNK         0.4855 
      3 O          27.4171   -6.5363   -1.7123 O.2       0 UNK        -0.5197 
      4 N          26.2100   -4.8614   -2.6192 N.am      1 UNK        -0.4892 
      5 CA         25.9962   -4.0715   -1.4088 C.3       1 UNK         0.0835 
      6 C6         27.2774   -3.3526   -0.8899 C.3       12 UNK        -0.0855 
      7 S7         27.8194   -1.8784   -1.8339 S.3       12 UNK        -0.2931 
      8 C8         29.6113   -1.8627   -1.4767 C.3       12 UNK         0.0378 
      9 C9         30.4358   -2.2786   -2.6878 C.ar      12 UNK        -0.0802 
     10 C10        31.4885   -1.4755   -3.1382 C.ar      12 UNK        -0.0944 
     11 C11        32.2212   -1.8322   -4.2754 C.ar      12 UNK        -0.0787 
     12 C12        31.8794   -2.9960   -4.9745 C.ar      12 UNK        -0.0862 
     13 C13        30.8247   -3.8022   -4.5364 C.ar      12 UNK        -0.0733 
     14 C14        30.1370   -3.4588   -3.3710 C.ar      12 UNK        -0.0832 
     15 C15        30.4121   -5.0383   -5.3211 C.3       12 UNK         0.0240 
     16 S16        29.3197   -4.6406   -6.7297 S.3       12 UNK        -0.2522 
     17 C17        27.8520   -3.8754   -5.9449 C.3       12 UNK        -0.0967 
     18 CA         27.3854   -2.5624   -6.6215 C.3       5 UNK         0.0660 
     19 N          26.1291   -2.0707   -6.0458 N.am      5 UNK        -0.4015 
     20 C          25.3593   -1.1306   -6.6130 C.2       4 UNK         0.4946 
     21 O          25.5989   -0.6057   -7.7001 O.2       4 UNK        -0.5353 
     22 CA         24.1457   -0.6625   -5.8023 C.3       4 UNK         0.0277 
     23 CB         23.0293   -1.7195   -5.8081 C.3       4 UNK        -0.1981 
     24 N          24.5073   -0.3259   -4.4247 N.am      4 UNK        -0.4209 
     25 C          25.2187    0.7550   -4.0700 C.2       3 UNK         0.4942 
     26 O          25.6997    1.5355   -4.8912 O.2       3 UNK        -0.5208 
     27 CA         25.4748    1.0132   -2.5690 C.3       3 UNK         0.0250 
     28 CB         25.1032    2.4548   -2.1651 C.3       3 UNK        -0.1990 
     29 N          24.8679    0.0291   -1.6634 N.am      3 UNK        -0.4232 
     30 C          23.5668   -0.2183   -1.4417 C.2       2 UNK         0.4993 
     31 O          22.6499    0.4601   -1.9057 O.2       2 UNK        -0.5286 
     32 CA         23.2400   -1.4715   -0.5984 C.3       2 UNK         0.0209 
     33 CB         21.8903   -2.1063   -0.9984 C.3       2 UNK        -0.1931 
     34 N          24.3052   -2.4909   -0.6046 N.am      2 UNK        -0.4546 
     35 C          24.8227   -3.1134   -1.6761 C.2       1 UNK         0.5154 
     36 O          24.4536   -2.9117   -2.8394 O.2       1 UNK        -0.5181 
     37 C          28.4578   -1.4518   -6.6433 C.2       5 UNK         0.5014 
     38 O          29.1449   -1.3078   -7.6544 O.2       5 UNK        -0.5248 
     39 N          28.5201   -0.6396   -5.5750 N.am      6 UNK        -0.4434 
     40 CA         29.3971    0.5302   -5.4656 C.3       6 UNK         0.0363 
     41 CB         29.2253    1.1862   -4.0863 C.3       6 UNK        -0.1936 
     42 C          29.1683    1.5631   -6.5818 C.2       6 UNK         0.5081 
     43 O          30.1389    2.0775   -7.1401 O.2       6 UNK        -0.5248 
     44 N          27.8948    1.8333   -6.8988 N.am      7 UNK        -0.4718 
     45 CA         27.4882    2.6909   -8.0097 C.3       7 UNK         0.0273 
     46 CB         26.0038    3.0621   -7.8629 C.3       7 UNK        -0.1935 
     47 C          27.7604    2.0418   -9.3753 C.2       7 UNK         0.5018 
     48 O          28.3483    2.6933  -10.2384 O.2       7 UNK        -0.5186 
     49 N          27.3433    0.7777   -9.5463 N.am      8 UNK        -0.4240 
     50 CA         27.4586    0.0228  -10.7992 C.3       8 UNK         0.0235 
     51 CB         26.7127   -1.3151  -10.6757 C.3       8 UNK        -0.2000 
     52 C          28.9078   -0.2097  -11.2549 C.2       8 UNK         0.4941 
     53 O          29.1999   -0.0365  -12.4388 O.2       8 UNK        -0.5273 
     54 N          29.7894   -0.5786  -10.3162 N.am      9 UNK        -0.4262 
     55 CA         31.2196   -0.7781  -10.5653 C.3       9 UNK         0.0264 
     56 CB         31.7592   -1.8260   -9.5783 C.3       9 UNK        -0.1955 
     57 C          32.0363    0.5280  -10.5041 C.2       9 UNK         0.5031 
     58 O          33.2242    0.4932  -10.8291 O.2       9 UNK        -0.5390 
     59 N          31.3990    1.6432  -10.1099 N.am      10 UNK        -0.4204 
     60 CA         31.9556    2.9945   -9.9668 C.3       10 UNK         0.0237 
     61 CB         32.3150    3.5864  -11.3464 C.3       10 UNK        -0.1985 
     62 C          33.1205    3.0454   -8.9597 C.2       10 UNK         0.4970 
     63 O          34.2026    3.5412   -9.2815 O.2       10 UNK        -0.4914 
     64 N          32.8663    2.5136   -7.7617 N.am      11 UNK        -0.4285 
     65 CA         33.8260    2.3771   -6.6563 C.3       11 UNK         0.1007 
     66 C          33.2867    2.8916   -5.2919 C.2       11 UNK         0.5703 
     67 N          32.0453    3.3527   -5.1946 N.am      11 UNK        -0.7361 
     68 O          34.0212    2.9050   -4.3070 O.2       11 UNK        -0.4986 
     69 C69        34.4056    0.9381   -6.5782 C.3       12 UNK        -0.0947 
     70 S70        33.1200   -0.3489   -6.4368 S.3       12 UNK        -0.2240 
     71 C71        33.3772   -0.9567   -4.7436 C.3       12 UNK         0.0194 
     72 H72        26.5562   -7.8346   -3.8348 H         1 UNK         0.0906 
     73 H73        26.0515   -6.3760   -4.6794 H         1 UNK         0.0906 
     74 H74        27.7713   -6.7411   -4.4947 H         1 UNK         0.0906 
     75 H75        25.6887   -4.5035   -3.4104 H         1 UNK         0.3140 
     76 H76        25.6577   -4.7633   -0.6337 H         1 UNK         0.1085 
     77 H77        27.1205   -3.0329    0.1415 H         1 UNK         0.0836 
     78 H78        28.0986   -4.0684   -0.8390 H         1 UNK         0.0836 
     79 H79        29.8825   -0.8544   -1.1605 H         1 UNK         0.0731 
     80 H80        29.8467   -2.5160   -0.6357 H         1 UNK         0.0731 
     81 H81        31.7339   -0.5659   -2.6072 H         1 UNK         0.1312 
     82 H82        32.4228   -3.2630   -5.8707 H         1 UNK         0.1406 
     83 H83        29.3321   -4.0880   -3.0170 H         1 UNK         0.1631 
     84 H84        29.9169   -5.7575   -4.6682 H         1 UNK         0.0717 
     85 H85        31.3026   -5.5409   -5.7012 H         1 UNK         0.0717 
     86 H86        27.0474   -4.6081   -6.0083 H         1 UNK         0.0934 
     87 H87        28.0158   -3.7130   -4.8824 H         1 UNK         0.0934 
     88 H88        27.1739   -2.8064   -7.6646 H         1 UNK         0.0739 
     89 H89        25.8566   -2.4305   -5.1427 H         1 UNK         0.3093 
     90 H90        23.7572    0.2401   -6.2795 H         1 UNK         0.0818 
     91 H91        22.1413   -1.3577   -5.2894 H         1 UNK         0.0819 
     92 H92        22.7307   -1.9646   -6.8283 H         1 UNK         0.0819 
     93 H93        23.3398   -2.6477   -5.3271 H         1 UNK         0.0819 
     94 H94        24.1954   -0.9643   -3.7020 H         1 UNK         0.3041 
     95 H95        26.5510    0.9065   -2.4309 H         1 UNK         0.0784 
     96 H96        25.6775    3.1813   -2.7416 H         1 UNK         0.0793 
     97 H97        24.0484    2.6678   -2.3398 H         1 UNK         0.0793 
     98 H98        25.3145    2.6394   -1.1120 H         1 UNK         0.0793 
     99 H99        25.5280   -0.6101   -1.2406 H         1 UNK         0.3024 
    100 H100       23.1492   -1.1206    0.4311 H         1 UNK         0.1171 
    101 H101       21.6668   -2.9813   -0.3882 H         1 UNK         0.0786 
    102 H102       21.8824   -2.4158   -2.0442 H         1 UNK         0.0786 
    103 H103       21.0684   -1.4022   -0.8624 H         1 UNK         0.0786 
    104 H104       24.6920   -2.7104    0.3039 H         1 UNK         0.2977 
    105 H105       27.9211   -0.8306   -4.7868 H         1 UNK         0.3127 
    106 H106       30.4222    0.1697   -5.5485 H         1 UNK         0.0770 
    107 H107       28.2529    1.6664   -3.9827 H         1 UNK         0.0814 
    108 H108       29.9807    1.9550   -3.9275 H         1 UNK         0.0814 
    109 H109       29.3300    0.4636   -3.2795 H         1 UNK         0.0814 
    110 H110       27.1506    1.4205   -6.3454 H         1 UNK         0.2983 
    111 H111       28.0732    3.6120   -7.9582 H         1 UNK         0.0947 
    112 H112       25.6781    3.7054   -8.6813 H         1 UNK         0.0806 
    113 H113       25.8228    3.6019   -6.9332 H         1 UNK         0.0806 
    114 H114       25.3627    2.1797   -7.8632 H         1 UNK         0.0806 
    115 H115       26.8463    0.3190   -8.7850 H         1 UNK         0.3000 
    116 H116       26.9649    0.6115  -11.5752 H         1 UNK         0.0850 
    117 H117       26.7609   -1.8780  -11.6089 H         1 UNK         0.0810 
    118 H118       25.6586   -1.1621  -10.4437 H         1 UNK         0.0810 
    119 H119       27.1403   -1.9422   -9.8933 H         1 UNK         0.0810 
    120 H120       29.4697   -0.7375   -9.3597 H         1 UNK         0.3040 
    121 H121       31.3504   -1.1811  -11.5718 H         1 UNK         0.0766 
    122 H122       32.8279   -1.9921   -9.7191 H         1 UNK         0.0812 
    123 H123       31.2599   -2.7861   -9.7087 H         1 UNK         0.0812 
    124 H124       31.6095   -1.5160   -8.5456 H         1 UNK         0.0812 
    125 H125       30.4210    1.5562   -9.8656 H         1 UNK         0.3205 
    126 H126       31.1580    3.6079   -9.5442 H         1 UNK         0.0754 
    127 H127       32.6337    4.6253  -11.2542 H         1 UNK         0.0769 
    128 H128       31.4567    3.5693  -12.0183 H         1 UNK         0.0769 
    129 H129       33.1269    3.0381  -11.8253 H         1 UNK         0.0769 
    130 H130       31.9308    2.1580   -7.5755 H         1 UNK         0.2981 
    131 H131       34.6688    3.0403   -6.8577 H         1 UNK         0.0541 
    132 H132       31.4129    3.3019   -5.9813 H         1 UNK         0.3459 
    133 H133       31.7253    3.7101   -4.3094 H         1 UNK         0.3459 
    134 H134       35.1219    0.8461   -5.7600 H         1 UNK         0.0612 
    135 H135       34.9723    0.7310   -7.4870 H         1 UNK         0.0612 
    136 H136       34.3051   -1.5285   -4.7035 H         1 UNK         0.0624 
    137 H137       33.5046   -0.1024   -4.0768 H         1 UNK         0.0624 
@<TRIPOS>BOND
     1    1    2 1    
     2    1   72 1    
     3    1   73 1    
     4    1   74 1    
     5    2    3 2    
     6    2    4 am   BACKBONE|DICT|INTERRES
     7    4    5 1    
     8    4   75 1    
     9    5    6 1    
    10    5   35 1    
    11    5   76 1    
    12    6    7 1    
    13    6   77 1    
    14    6   78 1    
    15    7    8 1    
    16    8    9 1    
    17    8   79 1    
    18    8   80 1    
    19    9   10 ar   
    20    9   14 ar   
    21   10   11 ar   
    22   10   81 1    
    23   11   12 ar   
    24   11   71 1    
    25   12   13 ar   
    26   12   82 1    
    27   13   14 ar   
    28   13   15 1    
    29   14   83 1    
    30   15   16 1    
    31   15   84 1    
    32   15   85 1    
    33   16   17 1    
    34   17   18 1    
    35   17   86 1    
    36   17   87 1    
    37   18   19 1    
    38   18   37 1    
    39   18   88 1    
    40   19   20 am   BACKBONE|DICT|INTERRES
    41   19   89 1    
    42   20   21 2    
    43   20   22 1    
    44   22   23 1    
    45   22   24 1    
    46   22   90 1    
    47   23   91 1    
    48   23   92 1    
    49   23   93 1    
    50   24   25 am   BACKBONE|DICT|INTERRES
    51   24   94 1    
    52   25   26 2    
    53   25   27 1    
    54   27   28 1    
    55   27   29 1    
    56   27   95 1    
    57   28   96 1    
    58   28   97 1    
    59   28   98 1    
    60   29   30 am   BACKBONE|DICT|INTERRES
    61   29   99 1    
    62   30   31 2    
    63   30   32 1    
    64   32   33 1    
    65   32   34 1    
    66   32  100 1    
    67   33  101 1    
    68   33  102 1    
    69   33  103 1    
    70   34   35 am   BACKBONE|DICT|INTERRES
    71   34  104 1    
    72   35   36 2    
    73   37   38 2    
    74   37   39 am   BACKBONE|DICT|INTERRES
    75   39   40 1    
    76   39  105 1    
    77   40   41 1    
    78   40   42 1    
    79   40  106 1    
    80   41  107 1    
    81   41  108 1    
    82   41  109 1    
    83   42   43 2    
    84   42   44 am   BACKBONE|DICT|INTERRES
    85   44   45 1    
    86   44  110 1    
    87   45   46 1    
    88   45   47 1    
    89   45  111 1    
    90   46  112 1    
    91   46  113 1    
    92   46  114 1    
    93   47   48 2    
    94   47   49 am   BACKBONE|DICT|INTERRES
    95   49   50 1    
    96   49  115 1    
    97   50   51 1    
    98   50   52 1    
    99   50  116 1    
   100   51  117 1    
   101   51  118 1    
   102   51  119 1    
   103   52   53 2    
   104   52   54 am   BACKBONE|DICT|INTERRES
   105   54   55 1    
   106   54  120 1    
   107   55   56 1    
   108   55   57 1    
   109   55  121 1    
   110   56  122 1    
   111   56  123 1    
   112   56  124 1    
   113   57   58 2    
   114   57   59 am   BACKBONE|DICT|INTERRES
   115   59   60 1    
   116   59  125 1    
   117   60   61 1    
   118   60   62 1    
   119   60  126 1    
   120   61  127 1    
   121   61  128 1    
   122   61  129 1    
   123   62   63 2    
   124   62   64 am   BACKBONE|DICT|INTERRES
   125   64   65 1    
   126   64  130 1    
   127   65   66 1    
   128   65   69 1    
   129   65  131 1    
   130   66   67 am   BACKBONE|DICT|INTERRES
   131   66   68 2    
   132   67  132 1    
   133   67  133 1    
   134   69   70 1    
   135   69  134 1    
   136   69  135 1    
   137   70   71 1    
   138   71  136 1    
   139   71  137 1    
@<TRIPOS>SUBSTRUCTURE
     1 UNK         1 GROUP             0       ****    0 ROOT    
