@<TRIPOS>MOLECULE
3R137
137   139    1
SMALL
USER_CHARGES


@<TRIPOS>ATOM
      1 CA         25.3317   -1.6214   -6.9402 C.3       0 UNK        -0.2020 
      2 C          25.4007   -2.8284   -6.0202 C.2       0 UNK         0.4855 
      3 O          24.3975   -3.5238   -5.8587 O.2       0 UNK        -0.5197 
      4 N          26.5708   -3.0796   -5.4149 N.am      1 UNK        -0.4892 
      5 CA         26.8417   -4.1844   -4.4849 C.3       1 UNK         0.0835 
      6 C6         28.3170   -4.1977   -4.0100 C.3       12 UNK        -0.0855 
      7 S7         29.5210   -4.3554   -5.3706 S.3       12 UNK        -0.2931 
      8 C8         31.0708   -3.8795   -4.5319 C.3       12 UNK         0.0378 
      9 C9         31.1466   -2.3770   -4.2987 C.ar      12 UNK        -0.0802 
     10 C10        31.5131   -1.5295   -5.3454 C.ar      12 UNK        -0.0944 
     11 C11        31.5293   -0.1432   -5.1691 C.ar      12 UNK        -0.0787 
     12 C12        31.1862    0.3948   -3.9233 C.ar      12 UNK        -0.0862 
     13 C13        30.8235   -0.4431   -2.8644 C.ar      12 UNK        -0.0733 
     14 C14        30.8269   -1.8296   -3.0530 C.ar      12 UNK        -0.0832 
     15 C15        30.3968    0.1445   -1.5237 C.3       12 UNK         0.0240 
     16 S16        28.7725    0.9827   -1.5892 S.3       12 UNK        -0.2522 
     17 C17        27.6781   -0.2951   -2.3146 C.3       12 UNK        -0.0967 
     18 CA         26.8988    0.1210   -3.5932 C.3       5 UNK         0.0660 
     19 N          25.6561    0.8347   -3.2738 N.am      5 UNK        -0.4015 
     20 C          24.7397    1.2488   -4.1611 C.2       4 UNK         0.4946 
     21 O          24.9221    1.3087   -5.3777 O.2       4 UNK        -0.5353 
     22 CA         23.3404    1.5496   -3.6037 C.3       4 UNK         0.0277 
     23 CB         22.6741    2.7279   -4.3364 C.3       4 UNK        -0.1981 
     24 N          22.5145    0.3500   -3.7615 N.am      4 UNK        -0.4209 
     25 C          22.6594   -0.7710   -3.0398 C.2       3 UNK         0.4942 
     26 O          23.3806   -0.8306   -2.0416 O.2       3 UNK        -0.5208 
     27 CA         21.8886   -2.0243   -3.5075 C.3       3 UNK         0.0250 
     28 CB         21.3914   -1.9406   -4.9660 C.3       3 UNK        -0.1990 
     29 N          22.7257   -3.2189   -3.3634 N.am      3 UNK        -0.4232 
     30 C          22.8213   -3.9591   -2.2486 C.2       2 UNK         0.4993 
     31 O          22.1267   -3.7776   -1.2468 O.2       2 UNK        -0.5286 
     32 CA         23.8432   -5.1134   -2.2356 C.3       2 UNK         0.0209 
     33 CB         23.1264   -6.4680   -2.3685 C.3       2 UNK        -0.1931 
     34 N          24.8725   -5.0183   -3.2752 N.am      2 UNK        -0.4546 
     35 C          25.8894   -4.1456   -3.2689 C.2       1 UNK         0.5154 
     36 O          26.0842   -3.3270   -2.3687 O.2       1 UNK        -0.5181 
     37 C          27.7676    0.7884   -4.6818 C.2       5 UNK         0.5014 
     38 O          28.2547    0.0984   -5.5789 O.2       5 UNK        -0.5248 
     39 N          27.8681    2.1251   -4.6193 N.am      6 UNK        -0.4434 
     40 CA         28.6045    2.9880   -5.5449 C.3       6 UNK         0.0363 
     41 CB         28.4705    4.4473   -5.0839 C.3       6 UNK        -0.1936 
     42 C          28.1897    2.8559   -7.0215 C.2       6 UNK         0.5081 
     43 O          29.0200    3.1059   -7.8958 O.2       6 UNK        -0.5248 
     44 N          26.9438    2.4320   -7.2886 N.am      7 UNK        -0.4718 
     45 CA         26.4116    2.2059   -8.6374 C.3       7 UNK         0.0273 
     46 CB         24.8954    1.9665   -8.5583 C.3       7 UNK        -0.1935 
     47 C          27.1052    1.0639   -9.4053 C.2       7 UNK         0.5018 
     48 O          26.9614    0.9969  -10.6265 O.2       7 UNK        -0.5186 
     49 N          27.8620    0.2075   -8.7009 N.am      8 UNK        -0.4240 
     50 CA         28.7252   -0.8132   -9.2985 C.3       8 UNK         0.0235 
     51 CB         29.1313   -1.8283   -8.2198 C.3       8 UNK        -0.2000 
     52 C          29.9717   -0.2297   -9.9927 C.2       8 UNK         0.4941 
     53 O          30.5619   -0.9247  -10.8207 O.2       8 UNK        -0.5273 
     54 N          30.3552    1.0136   -9.6529 N.am      9 UNK        -0.4262 
     55 CA         31.4469    1.8366  -10.1998 C.3       9 UNK         0.0264 
     56 CB         31.2010    2.1644  -11.6848 C.3       9 UNK        -0.1955 
     57 C          32.8732    1.2929   -9.9878 C.2       9 UNK         0.5031 
     58 O          33.7581    2.0582   -9.6018 O.2       9 UNK        -0.5390 
     59 N          33.0849   -0.0050  -10.2274 N.am      10 UNK        -0.4204 
     60 CA         34.3445   -0.7240  -10.0355 C.3       10 UNK         0.0237 
     61 CB         34.3440   -1.9724  -10.9373 C.3       10 UNK        -0.1985 
     62 C          34.5554   -1.0656   -8.5495 C.2       10 UNK         0.4970 
     63 O          34.4879   -2.2351   -8.1675 O.2       10 UNK        -0.4914 
     64 N          34.7627   -0.0271   -7.7321 N.am      11 UNK        -0.4285 
     65 CA         34.9000   -0.1261   -6.2702 C.3       11 UNK         0.1007 
     66 C          36.2562   -0.7150   -5.7810 C.2       11 UNK         0.5703 
     67 N          37.2627   -0.8723   -6.6332 N.am      11 UNK        -0.7361 
     68 O          36.3958   -1.0410   -4.6046 O.2       11 UNK        -0.4986 
     69 C69        34.6017    1.2270   -5.5670 C.3       12 UNK        -0.0947 
     70 S70        33.0385    2.0801   -5.9975 S.3       12 UNK        -0.2240 
     71 C71        31.8366    0.7562   -6.3588 C.3       12 UNK         0.0194 
     72 H72        26.1539   -0.9316   -6.7639 H         1 UNK         0.0906 
     73 H73        25.3631   -1.9364   -7.9826 H         1 UNK         0.0906 
     74 H74        24.4028   -1.0769   -6.7743 H         1 UNK         0.0906 
     75 H75        27.3622   -2.4757   -5.5947 H         1 UNK         0.3140 
     76 H76        26.6616   -5.1137   -5.0295 H         1 UNK         0.1085 
     77 H77        28.4881   -5.0251   -3.3183 H         1 UNK         0.0836 
     78 H78        28.5347   -3.2871   -3.4544 H         1 UNK         0.0836 
     79 H79        31.1626   -4.4246   -3.5911 H         1 UNK         0.0731 
     80 H80        31.9147   -4.1928   -5.1485 H         1 UNK         0.0731 
     81 H81        31.7540   -1.9541   -6.3107 H         1 UNK         0.1312 
     82 H82        31.1670    1.4670   -3.7861 H         1 UNK         0.1406 
     83 H83        30.5427   -2.4830   -2.2393 H         1 UNK         0.1631 
     84 H84        31.1489    0.8613   -1.1911 H         1 UNK         0.0717 
     85 H85        30.3587   -0.6320   -0.7581 H         1 UNK         0.0717 
     86 H86        26.9808   -0.6238   -1.5420 H         1 UNK         0.0934 
     87 H87        28.2610   -1.1853   -2.5375 H         1 UNK         0.0934 
     88 H88        26.5477   -0.8089   -4.0380 H         1 UNK         0.0739 
     89 H89        25.3767    0.7970   -2.3036 H         1 UNK         0.3093 
     90 H90        23.4176    1.8027   -2.5440 H         1 UNK         0.0818 
     91 H91        21.6951    2.9544   -3.9137 H         1 UNK         0.0819 
     92 H92        23.2807    3.6305   -4.2515 H         1 UNK         0.0819 
     93 H93        22.5408    2.5257   -5.4002 H         1 UNK         0.0819 
     94 H94        21.9203    0.3203   -4.5772 H         1 UNK         0.3041 
     95 H95        21.0120   -2.1171   -2.8631 H         1 UNK         0.0784 
     96 H96        20.6544   -1.1470   -5.0941 H         1 UNK         0.0793 
     97 H97        22.2079   -1.7593   -5.6661 H         1 UNK         0.0793 
     98 H98        20.9049   -2.8691   -5.2659 H         1 UNK         0.0793 
     99 H99        23.3461   -3.4302   -4.1396 H         1 UNK         0.3024 
    100 H100       24.3405   -5.0831   -1.2631 H         1 UNK         0.1171 
    101 H101       22.6159   -6.5619   -3.3279 H         1 UNK         0.0786 
    102 H102       22.3754   -6.5915   -1.5867 H         1 UNK         0.0786 
    103 H103       23.8259   -7.2990   -2.2757 H         1 UNK         0.0786 
    104 H104       24.7560   -5.6189   -4.0795 H         1 UNK         0.2977 
    105 H105       27.4065    2.5854   -3.8485 H         1 UNK         0.3127 
    106 H106       29.6564    2.7099   -5.4747 H         1 UNK         0.0770 
    107 H107       27.4317    4.7799   -5.0954 H         1 UNK         0.0814 
    108 H108       29.0342    5.1156   -5.7366 H         1 UNK         0.0814 
    109 H109       28.8580    4.5829   -4.0740 H         1 UNK         0.0814 
    110 H110       26.3294    2.1878   -6.5158 H         1 UNK         0.2983 
    111 H111       26.5797    3.1197   -9.2114 H         1 UNK         0.0947 
    112 H112       24.4599    1.8862   -9.5551 H         1 UNK         0.0806 
    113 H113       24.3886    2.7854   -8.0476 H         1 UNK         0.0806 
    114 H114       24.6600    1.0451   -8.0266 H         1 UNK         0.0806 
    115 H115       27.9251    0.3278   -7.6949 H         1 UNK         0.3000 
    116 H116       28.1512   -1.3423  -10.0622 H         1 UNK         0.0850 
    117 H117       29.6381   -1.3432   -7.3871 H         1 UNK         0.0810 
    118 H118       28.2636   -2.3529   -7.8216 H         1 UNK         0.0810 
    119 H119       29.8080   -2.5846   -8.6200 H         1 UNK         0.0810 
    120 H120       29.7932    1.4972   -8.9591 H         1 UNK         0.3040 
    121 H121       31.3952    2.7768   -9.6480 H         1 UNK         0.0766 
    122 H122       30.2330    2.6448  -11.8278 H         1 UNK         0.0812 
    123 H123       31.2271    1.2716  -12.3103 H         1 UNK         0.0812 
    124 H124       31.9616    2.8483  -12.0639 H         1 UNK         0.0812 
    125 H125       32.2750   -0.5515  -10.5210 H         1 UNK         0.3205 
    126 H126       35.1721   -0.0844  -10.3498 H         1 UNK         0.0754 
    127 H127       34.2555   -1.7000  -11.9892 H         1 UNK         0.0769 
    128 H128       33.5196   -2.6453  -10.6965 H         1 UNK         0.0769 
    129 H129       35.2712   -2.5363  -10.8260 H         1 UNK         0.0769 
    130 H130       34.7436    0.9073   -8.1250 H         1 UNK         0.2981 
    131 H131       34.1535   -0.8420   -5.9276 H         1 UNK         0.0541 
    132 H132       37.1603   -0.6071   -7.5992 H         1 UNK         0.3459 
    133 H133       38.1334   -1.2581   -6.3035 H         1 UNK         0.3459 
    134 H134       34.5902    1.0832   -4.4849 H         1 UNK         0.0612 
    135 H135       35.4115    1.9315   -5.7646 H         1 UNK         0.0612 
    136 H136       32.1755    0.1711   -7.2116 H         1 UNK         0.0624 
    137 H137       30.9050    1.2169   -6.6836 H         1 UNK         0.0624 
@<TRIPOS>BOND
     1    1    2 1    
     2    1   72 1    
     3    1   73 1    
     4    1   74 1    
     5    2    3 2    
     6    2    4 am   BACKBONE|DICT|INTERRES
     7    4    5 1    
     8    4   75 1    
     9    5    6 1    
    10    5   35 1    
    11    5   76 1    
    12    6    7 1    
    13    6   77 1    
    14    6   78 1    
    15    7    8 1    
    16    8    9 1    
    17    8   79 1    
    18    8   80 1    
    19    9   10 ar   
    20    9   14 ar   
    21   10   11 ar   
    22   10   81 1    
    23   11   12 ar   
    24   11   71 1    
    25   12   13 ar   
    26   12   82 1    
    27   13   14 ar   
    28   13   15 1    
    29   14   83 1    
    30   15   16 1    
    31   15   84 1    
    32   15   85 1    
    33   16   17 1    
    34   17   18 1    
    35   17   86 1    
    36   17   87 1    
    37   18   19 1    
    38   18   37 1    
    39   18   88 1    
    40   19   20 am   BACKBONE|DICT|INTERRES
    41   19   89 1    
    42   20   21 2    
    43   20   22 1    
    44   22   23 1    
    45   22   24 1    
    46   22   90 1    
    47   23   91 1    
    48   23   92 1    
    49   23   93 1    
    50   24   25 am   BACKBONE|DICT|INTERRES
    51   24   94 1    
    52   25   26 2    
    53   25   27 1    
    54   27   28 1    
    55   27   29 1    
    56   27   95 1    
    57   28   96 1    
    58   28   97 1    
    59   28   98 1    
    60   29   30 am   BACKBONE|DICT|INTERRES
    61   29   99 1    
    62   30   31 2    
    63   30   32 1    
    64   32   33 1    
    65   32   34 1    
    66   32  100 1    
    67   33  101 1    
    68   33  102 1    
    69   33  103 1    
    70   34   35 am   BACKBONE|DICT|INTERRES
    71   34  104 1    
    72   35   36 2    
    73   37   38 2    
    74   37   39 am   BACKBONE|DICT|INTERRES
    75   39   40 1    
    76   39  105 1    
    77   40   41 1    
    78   40   42 1    
    79   40  106 1    
    80   41  107 1    
    81   41  108 1    
    82   41  109 1    
    83   42   43 2    
    84   42   44 am   BACKBONE|DICT|INTERRES
    85   44   45 1    
    86   44  110 1    
    87   45   46 1    
    88   45   47 1    
    89   45  111 1    
    90   46  112 1    
    91   46  113 1    
    92   46  114 1    
    93   47   48 2    
    94   47   49 am   BACKBONE|DICT|INTERRES
    95   49   50 1    
    96   49  115 1    
    97   50   51 1    
    98   50   52 1    
    99   50  116 1    
   100   51  117 1    
   101   51  118 1    
   102   51  119 1    
   103   52   53 2    
   104   52   54 am   BACKBONE|DICT|INTERRES
   105   54   55 1    
   106   54  120 1    
   107   55   56 1    
   108   55   57 1    
   109   55  121 1    
   110   56  122 1    
   111   56  123 1    
   112   56  124 1    
   113   57   58 2    
   114   57   59 am   BACKBONE|DICT|INTERRES
   115   59   60 1    
   116   59  125 1    
   117   60   61 1    
   118   60   62 1    
   119   60  126 1    
   120   61  127 1    
   121   61  128 1    
   122   61  129 1    
   123   62   63 2    
   124   62   64 am   BACKBONE|DICT|INTERRES
   125   64   65 1    
   126   64  130 1    
   127   65   66 1    
   128   65   69 1    
   129   65  131 1    
   130   66   67 am   BACKBONE|DICT|INTERRES
   131   66   68 2    
   132   67  132 1    
   133   67  133 1    
   134   69   70 1    
   135   69  134 1    
   136   69  135 1    
   137   70   71 1    
   138   71  136 1    
   139   71  137 1    
@<TRIPOS>SUBSTRUCTURE
     1 UNK         1 GROUP             0       ****    0 ROOT    
