@<TRIPOS>MOLECULE
3R137
137   139    1
SMALL
USER_CHARGES


@<TRIPOS>ATOM
      1 CA         30.8693    0.7560    0.5237 C.3       0 UNK        -0.2020 
      2 C          30.5340   -0.5593   -0.1628 C.2       0 UNK         0.4855 
      3 O          31.4135   -1.1736   -0.7618 O.2       0 UNK        -0.5197 
      4 N          29.2720   -0.9877   -0.0780 N.am      1 UNK        -0.4892 
      5 CA         28.6920   -2.1731   -0.7083 C.3       1 UNK         0.0835 
      6 C6         29.1304   -3.4889   -0.0069 C.3       12 UNK        -0.0855 
      7 S7         28.6443   -5.0214   -0.8825 S.3       12 UNK        -0.2931 
      8 C8         30.1466   -5.4590   -1.8160 C.3       12 UNK         0.0378 
      9 C9         30.2578   -4.6537   -3.1017 C.ar      12 UNK        -0.0802 
     10 C10        31.0074   -3.4747   -3.1284 C.ar      12 UNK        -0.0944 
     11 C11        31.0911   -2.7010   -4.2892 C.ar      12 UNK        -0.0787 
     12 C12        30.4170   -3.1391   -5.4358 C.ar      12 UNK        -0.0862 
     13 C13        29.7069   -4.3420   -5.4447 C.ar      12 UNK        -0.0733 
     14 C14        29.6232   -5.0934   -4.2684 C.ar      12 UNK        -0.0832 
     15 C15        29.0884   -4.8368   -6.7492 C.3       12 UNK         0.0240 
     16 S16        27.3198   -5.2627   -6.6386 S.3       12 UNK        -0.2522 
     17 C17        26.5668   -3.7578   -5.9444 C.3       12 UNK        -0.0967 
     18 CA         26.3450   -2.6188   -6.9778 C.3       5 UNK         0.0660 
     19 N          25.0838   -1.9168   -6.7275 N.am      5 UNK        -0.4015 
     20 C          24.5215   -1.0036   -7.5301 C.2       4 UNK         0.4946 
     21 O          24.9869   -0.6563   -8.6149 O.2       4 UNK        -0.5353 
     22 CA         23.2320   -0.3427   -7.0144 C.3       4 UNK         0.0277 
     23 CB         22.0068   -1.2055   -7.3565 C.3       4 UNK        -0.1981 
     24 N          23.2635   -0.0784   -5.5720 N.am      4 UNK        -0.4209 
     25 C          24.0814    0.8129   -4.9947 C.2       3 UNK         0.4942 
     26 O          24.8854    1.5071   -5.6151 O.2       3 UNK        -0.5208 
     27 CA         24.0234    0.9217   -3.4623 C.3       3 UNK         0.0250 
     28 CB         22.7836    1.7166   -3.0204 C.3       3 UNK        -0.1990 
     29 N          24.0742   -0.3584   -2.7426 N.am      3 UNK        -0.4232 
     30 C          25.0124   -1.3016   -2.9051 C.2       2 UNK         0.4993 
     31 O          25.8464   -1.2998   -3.8126 O.2       2 UNK        -0.5286 
     32 CA         25.0444   -2.4466   -1.8827 C.3       2 UNK         0.0209 
     33 CB         24.4007   -3.7182   -2.4561 C.3       2 UNK        -0.1931 
     34 N          26.4376   -2.7228   -1.5282 N.am      2 UNK        -0.4546 
     35 C          27.1667   -1.9439   -0.7210 C.2       1 UNK         0.5154 
     36 O          26.6773   -1.0447   -0.0269 O.2       1 UNK        -0.5181 
     37 C          27.5213   -1.6253   -6.9845 C.2       5 UNK         0.5014 
     38 O          28.2919   -1.5816   -7.9453 O.2       5 UNK        -0.5248 
     39 N          27.6027   -0.8231   -5.9148 N.am      6 UNK        -0.4434 
     40 CA         28.5998    0.2211   -5.7021 C.3       6 UNK         0.0363 
     41 CB         28.4162    0.8010   -4.2909 C.3       6 UNK        -0.1936 
     42 C          28.5546    1.3209   -6.7731 C.2       6 UNK         0.5081 
     43 O          29.6136    1.7800   -7.2005 O.2       6 UNK        -0.5248 
     44 N          27.3470    1.7029   -7.2116 N.am      7 UNK        -0.4718 
     45 CA         27.1322    2.6376   -8.3170 C.3       7 UNK         0.0273 
     46 CB         25.6569    3.0658   -8.3636 C.3       7 UNK        -0.1935 
     47 C          27.5749    2.0621   -9.6715 C.2       7 UNK         0.5018 
     48 O          28.2629    2.7580  -10.4183 O.2       7 UNK        -0.5186 
     49 N          27.1908    0.8089   -9.9601 N.am      8 UNK        -0.4240 
     50 CA         27.5223    0.1066  -11.2041 C.3       8 UNK         0.0235 
     51 CB         26.7279   -1.2066  -11.2918 C.3       8 UNK        -0.2000 
     52 C          29.0267   -0.1602  -11.3677 C.2       8 UNK         0.4941 
     53 O          29.5671    0.0716  -12.4499 O.2       8 UNK        -0.5273 
     54 N          29.6761   -0.6292  -10.2942 N.am      9 UNK        -0.4262 
     55 CA         31.1158   -0.9031  -10.2589 C.3       9 UNK         0.0264 
     56 CB         31.3875   -1.9424   -9.1651 C.3       9 UNK        -0.1955 
     57 C          31.9787    0.3551  -10.0396 C.2       9 UNK         0.5031 
     58 O          33.1929    0.2822  -10.2313 O.2       9 UNK        -0.5390 
     59 N          31.3507    1.4682   -9.6330 N.am      10 UNK        -0.4204 
     60 CA         31.9261    2.7890   -9.3438 C.3       10 UNK         0.0237 
     61 CB         32.6368    3.3793  -10.5807 C.3       10 UNK        -0.1985 
     62 C          32.7979    2.8536   -8.0718 C.2       10 UNK         0.4970 
     63 O          33.4543    3.8728   -7.8500 O.2       10 UNK        -0.4914 
     64 N          32.7690    1.8039   -7.2412 N.am      11 UNK        -0.4285 
     65 CA         33.3702    1.7685   -5.8973 C.3       11 UNK         0.1007 
     66 C          32.5192    2.4647   -4.7967 C.2       11 UNK         0.5703 
     67 N          31.2848    2.8719   -5.0637 N.am      11 UNK        -0.7361 
     68 O          33.0020    2.6677   -3.6854 O.2       11 UNK        -0.4986 
     69 C69        33.8329    0.3420   -5.4841 C.3       12 UNK        -0.0947 
     70 S70        32.6621   -0.9980   -5.8842 S.3       12 UNK        -0.2240 
     71 C71        31.9097   -1.4059   -4.2717 C.3       12 UNK         0.0194 
     72 H72        31.2470    1.4726   -0.2053 H         1 UNK         0.0906 
     73 H73        29.9999    1.1952    1.0126 H         1 UNK         0.0906 
     74 H74        31.6398    0.5992    1.2781 H         1 UNK         0.0906 
     75 H75        28.5681   -0.4289    0.3940 H         1 UNK         0.3140 
     76 H76        29.0214   -2.1876   -1.7486 H         1 UNK         0.1085 
     77 H77        30.2137   -3.4995    0.1194 H         1 UNK         0.0836 
     78 H78        28.7213   -3.5287    1.0043 H         1 UNK         0.0836 
     79 H79        31.0313   -5.3211   -1.1923 H         1 UNK         0.0731 
     80 H80        30.1111   -6.5229   -2.0553 H         1 UNK         0.0731 
     81 H81        31.5207   -3.1550   -2.2335 H         1 UNK         0.1312 
     82 H82        30.4595   -2.5549   -6.3406 H         1 UNK         0.1406 
     83 H83        29.0652   -6.0201   -4.2627 H         1 UNK         0.1631 
     84 H84        29.2167   -4.1017   -7.5447 H         1 UNK         0.0717 
     85 H85        29.6347   -5.7233   -7.0735 H         1 UNK         0.0717 
     86 H86        25.6029   -4.0896   -5.5578 H         1 UNK         0.0934 
     87 H87        27.1212   -3.4297   -5.0625 H         1 UNK         0.0934 
     88 H88        26.2694   -3.0510   -7.9780 H         1 UNK         0.0739 
     89 H89        24.6641   -2.0691   -5.8225 H         1 UNK         0.3093 
     90 H90        23.1269    0.6152   -7.5288 H         1 UNK         0.0818 
     91 H91        21.0793   -0.7064   -7.0753 H         1 UNK         0.0819 
     92 H92        21.9553   -1.3994   -8.4289 H         1 UNK         0.0819 
     93 H93        22.0353   -2.1720   -6.8518 H         1 UNK         0.0819 
     94 H94        22.6329   -0.6074   -4.9869 H         1 UNK         0.3041 
     95 H95        24.9066    1.4858   -3.1549 H         1 UNK         0.0784 
     96 H96        22.7301    2.6763   -3.5370 H         1 UNK         0.0793 
     97 H97        21.8588    1.1794   -3.2340 H         1 UNK         0.0793 
     98 H98        22.8088    1.9297   -1.9515 H         1 UNK         0.0793 
     99 H99        23.4185   -0.4618   -1.9814 H         1 UNK         0.3024 
    100 H100       24.4976   -2.1482   -0.9851 H         1 UNK         0.1171 
    101 H101       24.3820   -4.5174   -1.7148 H         1 UNK         0.0786 
    102 H102       23.3693   -3.5344   -2.7599 H         1 UNK         0.0786 
    103 H103       24.9395   -4.0883   -3.3275 H         1 UNK         0.0786 
    104 H104       26.9094   -3.4424   -2.0582 H         1 UNK         0.2977 
    105 H105       26.9174   -0.9472   -5.1681 H         1 UNK         0.3127 
    106 H106       29.5836   -0.2462   -5.7591 H         1 UNK         0.0770 
    107 H107       27.4317    1.2545   -4.1687 H         1 UNK         0.0814 
    108 H108       29.1582    1.5677   -4.0751 H         1 UNK         0.0814 
    109 H109       28.5229    0.0273   -3.5301 H         1 UNK         0.0814 
    110 H110       26.5177    1.3369   -6.7527 H         1 UNK         0.2983 
    111 H111       27.7362    3.5271   -8.1240 H         1 UNK         0.0947 
    112 H112       25.4772    3.7634   -9.1827 H         1 UNK         0.0806 
    113 H113       25.3619    3.5664   -7.4413 H         1 UNK         0.0806 
    114 H114       24.9924    2.2131   -8.5071 H         1 UNK         0.0806 
    115 H115       26.5961    0.3109   -9.3030 H         1 UNK         0.3000 
    116 H116       27.2111    0.7443  -12.0343 H         1 UNK         0.0850 
    117 H117       26.9655   -1.7491  -12.2079 H         1 UNK         0.0810 
    118 H118       25.6541   -1.0190  -11.2963 H         1 UNK         0.0810 
    119 H119       26.9468   -1.8679  -10.4523 H         1 UNK         0.0810 
    120 H120       29.1448   -0.8440   -9.4507 H         1 UNK         0.3040 
    121 H121       31.4156   -1.3362  -11.2156 H         1 UNK         0.0766 
    122 H122       30.8599   -2.8761   -9.3606 H         1 UNK         0.0812 
    123 H123       31.0595   -1.5686   -8.1983 H         1 UNK         0.0812 
    124 H124       32.4506   -2.1749   -9.0883 H         1 UNK         0.0812 
    125 H125       30.3562    1.3991   -9.4575 H         1 UNK         0.3205 
    126 H126       31.0671    3.4281   -9.1333 H         1 UNK         0.0754 
    127 H127       32.9025    4.4245  -10.4182 H         1 UNK         0.0769 
    128 H128       31.9942    3.3438  -11.4605 H         1 UNK         0.0769 
    129 H129       33.5580    2.8451  -10.8143 H         1 UNK         0.0769 
    130 H130       32.1771    1.0210   -7.4757 H         1 UNK         0.2981 
    131 H131       34.2809    2.3687   -5.9426 H         1 UNK         0.0541 
    132 H132       30.7632    3.3517   -4.3491 H         1 UNK         0.3459 
    133 H133       30.8507    2.6572   -5.9550 H         1 UNK         0.3459 
    134 H134       34.1044    0.2958   -4.4279 H         1 UNK         0.0612 
    135 H135       34.7529    0.1101   -6.0222 H         1 UNK         0.0612 
    136 H136       32.7065   -1.4890   -3.5309 H         1 UNK         0.0624 
    137 H137       31.2710   -0.5816   -3.9527 H         1 UNK         0.0624 
@<TRIPOS>BOND
     1    1    2 1    
     2    1   72 1    
     3    1   73 1    
     4    1   74 1    
     5    2    3 2    
     6    2    4 am   BACKBONE|DICT|INTERRES
     7    4    5 1    
     8    4   75 1    
     9    5    6 1    
    10    5   35 1    
    11    5   76 1    
    12    6    7 1    
    13    6   77 1    
    14    6   78 1    
    15    7    8 1    
    16    8    9 1    
    17    8   79 1    
    18    8   80 1    
    19    9   10 ar   
    20    9   14 ar   
    21   10   11 ar   
    22   10   81 1    
    23   11   12 ar   
    24   11   71 1    
    25   12   13 ar   
    26   12   82 1    
    27   13   14 ar   
    28   13   15 1    
    29   14   83 1    
    30   15   16 1    
    31   15   84 1    
    32   15   85 1    
    33   16   17 1    
    34   17   18 1    
    35   17   86 1    
    36   17   87 1    
    37   18   19 1    
    38   18   37 1    
    39   18   88 1    
    40   19   20 am   BACKBONE|DICT|INTERRES
    41   19   89 1    
    42   20   21 2    
    43   20   22 1    
    44   22   23 1    
    45   22   24 1    
    46   22   90 1    
    47   23   91 1    
    48   23   92 1    
    49   23   93 1    
    50   24   25 am   BACKBONE|DICT|INTERRES
    51   24   94 1    
    52   25   26 2    
    53   25   27 1    
    54   27   28 1    
    55   27   29 1    
    56   27   95 1    
    57   28   96 1    
    58   28   97 1    
    59   28   98 1    
    60   29   30 am   BACKBONE|DICT|INTERRES
    61   29   99 1    
    62   30   31 2    
    63   30   32 1    
    64   32   33 1    
    65   32   34 1    
    66   32  100 1    
    67   33  101 1    
    68   33  102 1    
    69   33  103 1    
    70   34   35 am   BACKBONE|DICT|INTERRES
    71   34  104 1    
    72   35   36 2    
    73   37   38 2    
    74   37   39 am   BACKBONE|DICT|INTERRES
    75   39   40 1    
    76   39  105 1    
    77   40   41 1    
    78   40   42 1    
    79   40  106 1    
    80   41  107 1    
    81   41  108 1    
    82   41  109 1    
    83   42   43 2    
    84   42   44 am   BACKBONE|DICT|INTERRES
    85   44   45 1    
    86   44  110 1    
    87   45   46 1    
    88   45   47 1    
    89   45  111 1    
    90   46  112 1    
    91   46  113 1    
    92   46  114 1    
    93   47   48 2    
    94   47   49 am   BACKBONE|DICT|INTERRES
    95   49   50 1    
    96   49  115 1    
    97   50   51 1    
    98   50   52 1    
    99   50  116 1    
   100   51  117 1    
   101   51  118 1    
   102   51  119 1    
   103   52   53 2    
   104   52   54 am   BACKBONE|DICT|INTERRES
   105   54   55 1    
   106   54  120 1    
   107   55   56 1    
   108   55   57 1    
   109   55  121 1    
   110   56  122 1    
   111   56  123 1    
   112   56  124 1    
   113   57   58 2    
   114   57   59 am   BACKBONE|DICT|INTERRES
   115   59   60 1    
   116   59  125 1    
   117   60   61 1    
   118   60   62 1    
   119   60  126 1    
   120   61  127 1    
   121   61  128 1    
   122   61  129 1    
   123   62   63 2    
   124   62   64 am   BACKBONE|DICT|INTERRES
   125   64   65 1    
   126   64  130 1    
   127   65   66 1    
   128   65   69 1    
   129   65  131 1    
   130   66   67 am   BACKBONE|DICT|INTERRES
   131   66   68 2    
   132   67  132 1    
   133   67  133 1    
   134   69   70 1    
   135   69  134 1    
   136   69  135 1    
   137   70   71 1    
   138   71  136 1    
   139   71  137 1    
@<TRIPOS>SUBSTRUCTURE
     1 UNK         1 GROUP             0       ****    0 ROOT    
