@<TRIPOS>MOLECULE
3R137
137   139    1
SMALL
USER_CHARGES


@<TRIPOS>ATOM
      1 CA         25.5600   -5.5054   -6.3674 C.3       0 UNK        -0.2020 
      2 C          25.5735   -5.0955   -4.9029 C.2       0 UNK         0.4855 
      3 O          24.6047   -4.5053   -4.4235 O.2       0 UNK        -0.5197 
      4 N          26.6687   -5.3903   -4.1886 N.am      1 UNK        -0.4892 
      5 CA         26.8947   -4.9936   -2.7942 C.3       1 UNK         0.0835 
      6 C6         28.1888   -5.6314   -2.2353 C.3       12 UNK        -0.0855 
      7 S7         28.3995   -5.3305   -0.4466 S.3       12 UNK        -0.2931 
      8 C8         30.1993   -5.0810   -0.3144 C.3       12 UNK         0.0378 
      9 C9         30.7156   -3.8695   -1.0860 C.ar      12 UNK        -0.0802 
     10 C10        31.6669   -4.0438   -2.0973 C.ar      12 UNK        -0.0944 
     11 C11        32.2321   -2.9398   -2.7420 C.ar      12 UNK        -0.0787 
     12 C12        31.8361   -1.6541   -2.3668 C.ar      12 UNK        -0.0862 
     13 C13        30.8476   -1.4612   -1.3983 C.ar      12 UNK        -0.0733 
     14 C14        30.2948   -2.5755   -0.7553 C.ar      12 UNK        -0.0832 
     15 C15        30.4137   -0.0503   -1.0166 C.3       12 UNK         0.0240 
     16 S16        29.1503    0.6270   -2.1455 S.3       12 UNK        -0.2522 
     17 C17        30.1622    1.3754   -3.4730 C.3       12 UNK        -0.0967 
     18 CA         29.4979    1.4192   -4.8756 C.3       5 UNK         0.0660 
     19 N          28.8496    0.1652   -5.2538 N.am      5 UNK        -0.4015 
     20 C          28.9189   -0.4007   -6.4667 C.2       4 UNK         0.4946 
     21 O          29.6012    0.0200   -7.4037 O.2       4 UNK        -0.5353 
     22 CA         28.0772   -1.6606   -6.6951 C.3       4 UNK         0.0277 
     23 CB         28.8882   -2.9160   -6.3399 C.3       4 UNK        -0.1981 
     24 N          26.8076   -1.6338   -5.9660 N.am      4 UNK        -0.4209 
     25 C          25.8229   -0.7531   -6.2111 C.2       3 UNK         0.4942 
     26 O          25.8975    0.1288   -7.0672 O.2       3 UNK        -0.5208 
     27 CA         24.5571   -0.8345   -5.3415 C.3       3 UNK         0.0250 
     28 CB         23.4742   -1.6675   -6.0438 C.3       3 UNK        -0.1990 
     29 N          24.8105   -1.3691   -4.0009 N.am      3 UNK        -0.4232 
     30 C          25.5251   -0.7201   -3.0685 C.2       2 UNK         0.4993 
     31 O          26.0151    0.3920   -3.2493 O.2       2 UNK        -0.5286 
     32 CA         25.7989   -1.4482   -1.7412 C.3       2 UNK         0.0209 
     33 CB         24.6760   -1.1704   -0.7301 C.3       2 UNK        -0.1931 
     34 N          25.9815   -2.8944   -1.8928 N.am      2 UNK        -0.4546 
     35 C          26.9097   -3.4563   -2.6795 C.2       1 UNK         0.5154 
     36 O          27.7192   -2.8107   -3.3449 O.2       1 UNK        -0.5181 
     37 C          28.5501    2.6227   -5.0377 C.2       5 UNK         0.5014 
     38 O          28.9904    3.6393   -5.5746 O.2       5 UNK        -0.5248 
     39 N          27.2828    2.5163   -4.6023 N.am      6 UNK        -0.4434 
     40 CA         26.3243    3.6317   -4.6042 C.3       6 UNK         0.0363 
     41 CB         25.0668    3.2684   -3.7991 C.3       6 UNK        -0.1936 
     42 C          25.9351    4.1215   -6.0073 C.2       6 UNK         0.5081 
     43 O          25.8536    5.3323   -6.2160 O.2       6 UNK        -0.5248 
     44 N          25.7252    3.1889   -6.9469 N.am      7 UNK        -0.4718 
     45 CA         25.4799    3.5037   -8.3595 C.3       7 UNK         0.0273 
     46 CB         24.4790    2.4889   -8.9396 C.3       7 UNK        -0.1935 
     47 C          26.7812    3.5155   -9.1824 C.2       7 UNK         0.5018 
     48 O          26.7276    3.8125  -10.3762 O.2       7 UNK        -0.5186 
     49 N          27.9103    3.1627   -8.5447 N.am      8 UNK        -0.4240 
     50 CA         29.2484    2.9673   -9.1167 C.3       8 UNK         0.0235 
     51 CB         29.8496    4.3123   -9.5742 C.3       8 UNK        -0.2000 
     52 C          29.2795    1.8885  -10.2191 C.2       8 UNK         0.4941 
     53 O          30.0706    1.9897  -11.1581 O.2       8 UNK        -0.5273 
     54 N          28.4087    0.8767  -10.0885 N.am      9 UNK        -0.4262 
     55 CA         28.2008   -0.1855  -11.0723 C.3       9 UNK         0.0264 
     56 CB         26.8809   -0.9127  -10.7657 C.3       9 UNK        -0.1955 
     57 C          29.3692   -1.1803  -11.1824 C.2       9 UNK         0.5031 
     58 O          29.5068   -1.8070  -12.2347 O.2       9 UNK        -0.5390 
     59 N          30.1870   -1.3100  -10.1275 N.am      10 UNK        -0.4204 
     60 CA         31.3805   -2.1653  -10.1314 C.3       10 UNK         0.0237 
     61 CB         30.9988   -3.6382   -9.8862 C.3       10 UNK        -0.1985 
     62 C          32.4766   -1.7078   -9.1579 C.2       10 UNK         0.4970 
     63 O          33.6469   -1.9822   -9.4264 O.2       10 UNK        -0.4914 
     64 N          32.1057   -1.0290   -8.0658 N.am      11 UNK        -0.4285 
     65 CA         33.0217   -0.5343   -7.0252 C.3       11 UNK         0.1007 
     66 C          33.1727    1.0157   -7.0443 C.2       11 UNK         0.5703 
     67 N          32.6713    1.7234   -8.0502 N.am      11 UNK        -0.7361 
     68 O          33.7719    1.5910   -6.1391 O.2       11 UNK        -0.4986 
     69 C69        32.6146   -1.0568   -5.6211 C.3       12 UNK        -0.0947 
     70 S70        32.6291   -2.8788   -5.4944 S.3       12 UNK        -0.2240 
     71 C71        33.2949   -3.1343   -3.8169 C.3       12 UNK         0.0194 
     72 H72        24.6869   -6.1230   -6.5757 H         1 UNK         0.0906 
     73 H73        25.5119   -4.6212   -7.0026 H         1 UNK         0.0906 
     74 H74        26.4494   -6.0724   -6.6414 H         1 UNK         0.0906 
     75 H75        27.4414   -5.8593   -4.6392 H         1 UNK         0.3140 
     76 H76        26.0530   -5.3779   -2.2135 H         1 UNK         0.1085 
     77 H77        29.0577   -5.2668   -2.7862 H         1 UNK         0.0836 
     78 H78        28.1676   -6.7117   -2.3870 H         1 UNK         0.0836 
     79 H79        30.7013   -5.9929   -0.6419 H         1 UNK         0.0731 
     80 H80        30.4560   -4.9578    0.7387 H         1 UNK         0.0731 
     81 H81        31.9904   -5.0404   -2.3649 H         1 UNK         0.1312 
     82 H82        32.3049   -0.8014   -2.8302 H         1 UNK         0.1406 
     83 H83        29.5497   -2.4382    0.0166 H         1 UNK         0.1631 
     84 H84        31.2772    0.6160   -0.9857 H         1 UNK         0.0717 
     85 H85        30.0026   -0.0529   -0.0060 H         1 UNK         0.0717 
     86 H86        30.4665    2.3748   -3.1548 H         1 UNK         0.0934 
     87 H87        31.0915    0.8191   -3.5577 H         1 UNK         0.0934 
     88 H88        30.3125    1.6010   -5.5812 H         1 UNK         0.0739 
     89 H89        28.2856   -0.2765   -4.5392 H         1 UNK         0.3093 
     90 H90        27.8421   -1.7091   -7.7581 H         1 UNK         0.0818 
     91 H91        29.7809   -2.9838   -6.9594 H         1 UNK         0.0819 
     92 H92        29.2381   -2.9031   -5.3082 H         1 UNK         0.0819 
     93 H93        28.3118   -3.8275   -6.4948 H         1 UNK         0.0819 
     94 H94        26.7257   -2.2606   -5.1743 H         1 UNK         0.3041 
     95 H95        24.1753    0.1822   -5.2285 H         1 UNK         0.0784 
     96 H96        23.2239   -1.2375   -7.0148 H         1 UNK         0.0793 
     97 H97        23.7990   -2.6931   -6.2185 H         1 UNK         0.0793 
     98 H98        22.5554   -1.7007   -5.4583 H         1 UNK         0.0793 
     99 H99        24.4890   -2.3111   -3.8110 H         1 UNK         0.3024 
    100 H100       26.7309   -1.0431   -1.3408 H         1 UNK         0.1171 
    101 H101       24.9065   -1.5965    0.2465 H         1 UNK         0.0786 
    102 H102       24.5373   -0.0974   -0.5886 H         1 UNK         0.0786 
    103 H103       23.7217   -1.5819   -1.0614 H         1 UNK         0.0786 
    104 H104       25.3387   -3.4896   -1.3902 H         1 UNK         0.2977 
    105 H105       26.9712    1.6623   -4.1396 H         1 UNK         0.3127 
    106 H106       26.8073    4.4685   -4.0948 H         1 UNK         0.0770 
    107 H107       24.5303    2.4301   -4.2437 H         1 UNK         0.0814 
    108 H108       24.3747    4.1104   -3.7550 H         1 UNK         0.0814 
    109 H109       25.3164    3.0021   -2.7719 H         1 UNK         0.0814 
    110 H110       25.8035    2.2045   -6.7107 H         1 UNK         0.2983 
    111 H111       25.0335    4.4967   -8.4474 H         1 UNK         0.0947 
    112 H112       24.1751    2.7771   -9.9468 H         1 UNK         0.0806 
    113 H113       23.5746    2.4289   -8.3341 H         1 UNK         0.0806 
    114 H114       24.9051    1.4883   -9.0089 H         1 UNK         0.0806 
    115 H115       27.8383    2.9944   -7.5506 H         1 UNK         0.3000 
    116 H116       29.8706    2.5886   -8.3046 H         1 UNK         0.0850 
    117 H117       30.8904    4.1934   -9.8779 H         1 UNK         0.0810 
    118 H118       29.8306    5.0472   -8.7694 H         1 UNK         0.0810 
    119 H119       29.3084    4.7294  -10.4240 H         1 UNK         0.0810 
    120 H120       27.8207    0.8602   -9.2671 H         1 UNK         0.3040 
    121 H121       28.0980    0.2910  -12.0497 H         1 UNK         0.0766 
    122 H122       26.0359   -0.2240  -10.7846 H         1 UNK         0.0812 
    123 H123       26.8948   -1.3963   -9.7902 H         1 UNK         0.0812 
    124 H124       26.6814   -1.6866  -11.5083 H         1 UNK         0.0812 
    125 H125       30.0056   -0.7431   -9.3071 H         1 UNK         0.3205 
    126 H126       31.8344   -2.1017  -11.1232 H         1 UNK         0.0754 
    127 H127       31.8853   -4.2735   -9.8573 H         1 UNK         0.0769 
    128 H128       30.3580   -4.0204  -10.6807 H         1 UNK         0.0769 
    129 H129       30.4725   -3.7714   -8.9431 H         1 UNK         0.0769 
    130 H130       31.1319   -0.7948   -7.8985 H         1 UNK         0.2981 
    131 H131       34.0287   -0.9070   -7.2187 H         1 UNK         0.0541 
    132 H132       32.2154    1.2653   -8.8213 H         1 UNK         0.3459 
    133 H133       32.7935    2.7231   -8.0522 H         1 UNK         0.3459 
    134 H134       33.2976   -0.6561   -4.8715 H         1 UNK         0.0612 
    135 H135       31.6194   -0.7066   -5.3518 H         1 UNK         0.0612 
    136 H136       34.1372   -2.4641   -3.6401 H         1 UNK         0.0624 
    137 H137       33.7008   -4.1455   -3.7625 H         1 UNK         0.0624 
@<TRIPOS>BOND
     1    1    2 1    
     2    1   72 1    
     3    1   73 1    
     4    1   74 1    
     5    2    3 2    
     6    2    4 am   BACKBONE|DICT|INTERRES
     7    4    5 1    
     8    4   75 1    
     9    5    6 1    
    10    5   35 1    
    11    5   76 1    
    12    6    7 1    
    13    6   77 1    
    14    6   78 1    
    15    7    8 1    
    16    8    9 1    
    17    8   79 1    
    18    8   80 1    
    19    9   10 ar   
    20    9   14 ar   
    21   10   11 ar   
    22   10   81 1    
    23   11   12 ar   
    24   11   71 1    
    25   12   13 ar   
    26   12   82 1    
    27   13   14 ar   
    28   13   15 1    
    29   14   83 1    
    30   15   16 1    
    31   15   84 1    
    32   15   85 1    
    33   16   17 1    
    34   17   18 1    
    35   17   86 1    
    36   17   87 1    
    37   18   19 1    
    38   18   37 1    
    39   18   88 1    
    40   19   20 am   BACKBONE|DICT|INTERRES
    41   19   89 1    
    42   20   21 2    
    43   20   22 1    
    44   22   23 1    
    45   22   24 1    
    46   22   90 1    
    47   23   91 1    
    48   23   92 1    
    49   23   93 1    
    50   24   25 am   BACKBONE|DICT|INTERRES
    51   24   94 1    
    52   25   26 2    
    53   25   27 1    
    54   27   28 1    
    55   27   29 1    
    56   27   95 1    
    57   28   96 1    
    58   28   97 1    
    59   28   98 1    
    60   29   30 am   BACKBONE|DICT|INTERRES
    61   29   99 1    
    62   30   31 2    
    63   30   32 1    
    64   32   33 1    
    65   32   34 1    
    66   32  100 1    
    67   33  101 1    
    68   33  102 1    
    69   33  103 1    
    70   34   35 am   BACKBONE|DICT|INTERRES
    71   34  104 1    
    72   35   36 2    
    73   37   38 2    
    74   37   39 am   BACKBONE|DICT|INTERRES
    75   39   40 1    
    76   39  105 1    
    77   40   41 1    
    78   40   42 1    
    79   40  106 1    
    80   41  107 1    
    81   41  108 1    
    82   41  109 1    
    83   42   43 2    
    84   42   44 am   BACKBONE|DICT|INTERRES
    85   44   45 1    
    86   44  110 1    
    87   45   46 1    
    88   45   47 1    
    89   45  111 1    
    90   46  112 1    
    91   46  113 1    
    92   46  114 1    
    93   47   48 2    
    94   47   49 am   BACKBONE|DICT|INTERRES
    95   49   50 1    
    96   49  115 1    
    97   50   51 1    
    98   50   52 1    
    99   50  116 1    
   100   51  117 1    
   101   51  118 1    
   102   51  119 1    
   103   52   53 2    
   104   52   54 am   BACKBONE|DICT|INTERRES
   105   54   55 1    
   106   54  120 1    
   107   55   56 1    
   108   55   57 1    
   109   55  121 1    
   110   56  122 1    
   111   56  123 1    
   112   56  124 1    
   113   57   58 2    
   114   57   59 am   BACKBONE|DICT|INTERRES
   115   59   60 1    
   116   59  125 1    
   117   60   61 1    
   118   60   62 1    
   119   60  126 1    
   120   61  127 1    
   121   61  128 1    
   122   61  129 1    
   123   62   63 2    
   124   62   64 am   BACKBONE|DICT|INTERRES
   125   64   65 1    
   126   64  130 1    
   127   65   66 1    
   128   65   69 1    
   129   65  131 1    
   130   66   67 am   BACKBONE|DICT|INTERRES
   131   66   68 2    
   132   67  132 1    
   133   67  133 1    
   134   69   70 1    
   135   69  134 1    
   136   69  135 1    
   137   70   71 1    
   138   71  136 1    
   139   71  137 1    
@<TRIPOS>SUBSTRUCTURE
     1 UNK         1 GROUP             0       ****    0 ROOT    
