@<TRIPOS>MOLECULE
3R137
137   139    1
SMALL
USER_CHARGES


@<TRIPOS>ATOM
      1 CA         26.1040   -6.2953   -5.6160 C.3       0 UNK        -0.2020 
      2 C          25.9697   -5.6712   -4.2358 C.2       0 UNK         0.4855 
      3 O          24.8647   -5.3041   -3.8347 O.2       0 UNK        -0.5197 
      4 N          27.0876   -5.5325   -3.5113 N.am      1 UNK        -0.4892 
      5 CA         27.1824   -4.9032   -2.1891 C.3       1 UNK         0.0835 
      6 C6         28.5969   -5.0452   -1.5620 C.3       12 UNK        -0.0855 
      7 S7         29.9915   -4.7763   -2.7187 S.3       12 UNK        -0.2931 
      8 C8         31.2276   -3.9675   -1.6543 C.3       12 UNK         0.0378 
      9 C9         31.2772   -2.4655   -1.8909 C.ar      12 UNK        -0.0802 
     10 C10        32.0990   -1.9496   -2.8968 C.ar      12 UNK        -0.0944 
     11 C11        32.1728   -0.5720   -3.1216 C.ar      12 UNK        -0.0787 
     12 C12        31.4340    0.2937   -2.3108 C.ar      12 UNK        -0.0862 
     13 C13        30.6074   -0.2075   -1.2995 C.ar      12 UNK        -0.0733 
     14 C14        30.5285   -1.5904   -1.0984 C.ar      12 UNK        -0.0832 
     15 C15        29.8118    0.7422   -0.4103 C.3       12 UNK         0.0240 
     16 S16        28.7752    1.9104   -1.3529 S.3       12 UNK        -0.2522 
     17 C17        27.7379    0.7772   -2.3327 C.3       12 UNK        -0.0967 
     18 CA         28.0179    0.8918   -3.8547 C.3       5 UNK         0.0660 
     19 N          27.7614   -0.3730   -4.5476 N.am      5 UNK        -0.4015 
     20 C          27.9556   -0.6127   -5.8525 C.2       4 UNK         0.4946 
     21 O          28.4595    0.1881   -6.6378 O.2       4 UNK        -0.5353 
     22 CA         27.4261   -1.9508   -6.3907 C.3       4 UNK         0.0277 
     23 CB         28.4386   -3.0847   -6.1695 C.3       4 UNK        -0.1981 
     24 N          26.1332   -2.2944   -5.7965 N.am      4 UNK        -0.4209 
     25 C          24.9908   -1.6464   -6.0713 C.2       3 UNK         0.4942 
     26 O          24.9000   -0.7430   -6.9023 O.2       3 UNK        -0.5208 
     27 CA         23.7533   -2.0370   -5.2477 C.3       3 UNK         0.0250 
     28 CB         23.0303   -3.2357   -5.8814 C.3       3 UNK        -0.1990 
     29 N          24.0865   -2.3282   -3.8503 N.am      3 UNK        -0.4232 
     30 C          24.4692   -1.3889   -2.9709 C.2       2 UNK         0.4993 
     31 O          24.5366   -0.1910   -3.2441 O.2       2 UNK        -0.5286 
     32 CA         24.9001   -1.8561   -1.5687 C.3       2 UNK         0.0209 
     33 CB         23.6910   -1.8967   -0.6213 C.3       2 UNK        -0.1931 
     34 N          25.5747   -3.1578   -1.5588 N.am      2 UNK        -0.4546 
     35 C          26.6978   -3.4408   -2.2336 C.2       1 UNK         0.5154 
     36 O          27.3015   -2.6159   -2.9197 O.2       1 UNK        -0.5181 
     37 C          27.2326    2.0649   -4.4788 C.2       5 UNK         0.5014 
     38 O          27.8210    3.1111   -4.7545 O.2       5 UNK        -0.5248 
     39 N          25.9259    1.8588   -4.7084 N.am      6 UNK        -0.4434 
     40 CA         25.0255    2.8197   -5.3497 C.3       6 UNK         0.0363 
     41 CB         23.5756    2.3217   -5.2401 C.3       6 UNK        -0.1936 
     42 C          25.3903    3.1079   -6.8157 C.2       6 UNK         0.5081 
     43 O          25.3232    4.2640   -7.2345 O.2       6 UNK        -0.5248 
     44 N          25.7771    2.0654   -7.5655 N.am      7 UNK        -0.4718 
     45 CA         26.2638    2.1790   -8.9440 C.3       7 UNK         0.0273 
     46 CB         26.3058    0.7851   -9.5874 C.3       7 UNK        -0.1935 
     47 C          27.6394    2.8627   -9.0413 C.2       7 UNK         0.5018 
     48 O          27.8982    3.5551  -10.0266 O.2       7 UNK        -0.5186 
     49 N          28.4945    2.6438   -8.0320 N.am      8 UNK        -0.4240 
     50 CA         29.8386    3.1898   -7.7996 C.3       8 UNK         0.0235 
     51 CB         29.8166    4.7270   -7.7004 C.3       8 UNK        -0.2000 
     52 C          30.9065    2.7067   -8.7944 C.2       8 UNK         0.4941 
     53 O          32.0019    2.3409   -8.3705 O.2       8 UNK        -0.5273 
     54 N          30.5800    2.6946  -10.0918 N.am      9 UNK        -0.4262 
     55 CA         31.4370    2.1821  -11.1625 C.3       9 UNK         0.0264 
     56 CB         30.9078    2.6787  -12.5172 C.3       9 UNK        -0.1955 
     57 C          31.5419    0.6474  -11.1556 C.2       9 UNK         0.5031 
     58 O          32.5796    0.1128  -11.5482 O.2       9 UNK        -0.5390 
     59 N          30.4747   -0.0307  -10.7071 N.am      10 UNK        -0.4204 
     60 CA         30.3405   -1.4908  -10.6837 C.3       10 UNK         0.0237 
     61 CB         28.9255   -1.8621  -10.2162 C.3       10 UNK        -0.1985 
     62 C          31.3900   -2.2063   -9.8172 C.2       10 UNK         0.4970 
     63 O          31.8343   -3.2921  -10.1916 O.2       10 UNK        -0.4914 
     64 N          31.7693   -1.5861   -8.6936 N.am      11 UNK        -0.4285 
     65 CA         32.8363   -2.0580   -7.8007 C.3       11 UNK         0.1007 
     66 C          34.2603   -1.5521   -8.1819 C.2       11 UNK         0.5703 
     67 N          34.4469   -0.8274   -9.2801 N.am      11 UNK        -0.7361 
     68 O          35.2254   -1.8459   -7.4801 O.2       11 UNK        -0.4986 
     69 C69        32.4758   -1.8303   -6.3092 C.3       12 UNK        -0.0947 
     70 S70        32.2208   -0.0820   -5.8479 S.3       12 UNK        -0.2240 
     71 C71        33.0541   -0.0138   -4.2306 C.3       12 UNK         0.0194 
     72 H72        27.1260   -6.6122   -5.8225 H         1 UNK         0.0906 
     73 H73        25.4561   -7.1676   -5.6967 H         1 UNK         0.0906 
     74 H74        25.8087   -5.5796   -6.3826 H         1 UNK         0.0906 
     75 H75        27.9775   -5.8130   -3.9005 H         1 UNK         0.3140 
     76 H76        26.4956   -5.4511   -1.5401 H         1 UNK         0.1085 
     77 H77        28.7076   -6.0570   -1.1688 H         1 UNK         0.0836 
     78 H78        28.6977   -4.3892   -0.6952 H         1 UNK         0.0836 
     79 H79        32.2049   -4.4014   -1.8713 H         1 UNK         0.0731 
     80 H80        31.0351   -4.1870   -0.6032 H         1 UNK         0.0731 
     81 H81        32.6782   -2.6274   -3.5070 H         1 UNK         0.1312 
     82 H82        31.4932    1.3615   -2.4720 H         1 UNK         0.1406 
     83 H83        29.8924   -1.9880   -0.3195 H         1 UNK         0.1631 
     84 H84        30.5073    1.3104    0.2086 H         1 UNK         0.0717 
     85 H85        29.1716    0.1869    0.2771 H         1 UNK         0.0717 
     86 H86        27.9275   -0.2400   -1.9893 H         1 UNK         0.0934 
     87 H87        26.6900    0.9680   -2.0947 H         1 UNK         0.0934 
     88 H88        29.0812    1.0928   -4.0032 H         1 UNK         0.0739 
     89 H89        27.4283   -1.1426   -3.9698 H         1 UNK         0.3093 
     90 H90        27.2727   -1.8424   -7.4653 H         1 UNK         0.0818 
     91 H91        28.6876   -3.2131   -5.1156 H         1 UNK         0.0819 
     92 H92        28.0622   -4.0353   -6.5463 H         1 UNK         0.0819 
     93 H93        29.3672   -2.8750   -6.7005 H         1 UNK         0.0819 
     94 H94        26.1380   -2.9729   -5.0487 H         1 UNK         0.3041 
     95 H95        23.0670   -1.1873   -5.2604 H         1 UNK         0.0784 
     96 H96        22.7209   -3.0059   -6.9019 H         1 UNK         0.0793 
     97 H97        23.6667   -4.1193   -5.9276 H         1 UNK         0.0793 
     98 H98        22.1321   -3.4983   -5.3223 H         1 UNK         0.0793 
     99 H99        24.1038   -3.3042   -3.5732 H         1 UNK         0.3024 
    100 H100       25.6073   -1.1181   -1.1854 H         1 UNK         0.1171 
    101 H101       23.9937   -2.1285    0.4000 H         1 UNK         0.0786 
    102 H102       23.1839   -0.9309   -0.5950 H         1 UNK         0.0786 
    103 H103       22.9574   -2.6415   -0.9328 H         1 UNK         0.0786 
    104 H104       25.1148   -3.8977   -1.0474 H         1 UNK         0.2977 
    105 H105       25.5016    0.9954   -4.3762 H         1 UNK         0.3127 
    106 H106       25.1037    3.7601   -4.8001 H         1 UNK         0.0770 
    107 H107       23.4382    1.3657   -5.7464 H         1 UNK         0.0814 
    108 H108       22.8829    3.0333   -5.6912 H         1 UNK         0.0814 
    109 H109       23.2777    2.1940   -4.1993 H         1 UNK         0.0814 
    110 H110       25.7357    1.1324   -7.1673 H         1 UNK         0.2983 
    111 H111       25.5548    2.7923   -9.5046 H         1 UNK         0.0947 
    112 H112       26.6705    0.8350  -10.6143 H         1 UNK         0.0806 
    113 H113       25.3139    0.3337   -9.6165 H         1 UNK         0.0806 
    114 H114       26.9594    0.1110   -9.0352 H         1 UNK         0.0806 
    115 H115       28.2151    1.9474   -7.3442 H         1 UNK         0.3000 
    116 H116       30.1329    2.8044   -6.8215 H         1 UNK         0.0850 
    117 H117       30.8002    5.1123   -7.4289 H         1 UNK         0.0810 
    118 H118       29.1147    5.0601   -6.9354 H         1 UNK         0.0810 
    119 H119       29.5334    5.1955   -8.6432 H         1 UNK         0.0810 
    120 H120       29.6576    3.0445  -10.3435 H         1 UNK         0.3040 
    121 H121       32.4427    2.5834  -11.0195 H         1 UNK         0.0766 
    122 H122       30.8992    3.7679  -12.5638 H         1 UNK         0.0812 
    123 H123       29.8934    2.3270  -12.7100 H         1 UNK         0.0812 
    124 H124       31.5374    2.3255  -13.3353 H         1 UNK         0.0812 
    125 H125       29.6788    0.5038  -10.3934 H         1 UNK         0.3205 
    126 H126       30.4671   -1.8461  -11.7085 H         1 UNK         0.0754 
    127 H127       28.7874   -2.9443  -10.2022 H         1 UNK         0.0769 
    128 H128       28.1638   -1.4484  -10.8773 H         1 UNK         0.0769 
    129 H129       28.7368   -1.4961   -9.2076 H         1 UNK         0.0769 
    130 H130       31.3757   -0.6845   -8.4654 H         1 UNK         0.2981 
    131 H131       32.9057   -3.1412   -7.9147 H         1 UNK         0.0541 
    132 H132       33.6787   -0.5963   -9.8977 H         1 UNK         0.3459 
    133 H133       35.3785   -0.5194   -9.5077 H         1 UNK         0.3459 
    134 H134       31.5642   -2.3738   -6.0610 H         1 UNK         0.0612 
    135 H135       33.2526   -2.2675   -5.6814 H         1 UNK         0.0612 
    136 H136       33.3070    1.0261   -4.0185 H         1 UNK         0.0624 
    137 H137       34.0027   -0.5511   -4.2720 H         1 UNK         0.0624 
@<TRIPOS>BOND
     1    1    2 1    
     2    1   72 1    
     3    1   73 1    
     4    1   74 1    
     5    2    3 2    
     6    2    4 am   BACKBONE|DICT|INTERRES
     7    4    5 1    
     8    4   75 1    
     9    5    6 1    
    10    5   35 1    
    11    5   76 1    
    12    6    7 1    
    13    6   77 1    
    14    6   78 1    
    15    7    8 1    
    16    8    9 1    
    17    8   79 1    
    18    8   80 1    
    19    9   10 ar   
    20    9   14 ar   
    21   10   11 ar   
    22   10   81 1    
    23   11   12 ar   
    24   11   71 1    
    25   12   13 ar   
    26   12   82 1    
    27   13   14 ar   
    28   13   15 1    
    29   14   83 1    
    30   15   16 1    
    31   15   84 1    
    32   15   85 1    
    33   16   17 1    
    34   17   18 1    
    35   17   86 1    
    36   17   87 1    
    37   18   19 1    
    38   18   37 1    
    39   18   88 1    
    40   19   20 am   BACKBONE|DICT|INTERRES
    41   19   89 1    
    42   20   21 2    
    43   20   22 1    
    44   22   23 1    
    45   22   24 1    
    46   22   90 1    
    47   23   91 1    
    48   23   92 1    
    49   23   93 1    
    50   24   25 am   BACKBONE|DICT|INTERRES
    51   24   94 1    
    52   25   26 2    
    53   25   27 1    
    54   27   28 1    
    55   27   29 1    
    56   27   95 1    
    57   28   96 1    
    58   28   97 1    
    59   28   98 1    
    60   29   30 am   BACKBONE|DICT|INTERRES
    61   29   99 1    
    62   30   31 2    
    63   30   32 1    
    64   32   33 1    
    65   32   34 1    
    66   32  100 1    
    67   33  101 1    
    68   33  102 1    
    69   33  103 1    
    70   34   35 am   BACKBONE|DICT|INTERRES
    71   34  104 1    
    72   35   36 2    
    73   37   38 2    
    74   37   39 am   BACKBONE|DICT|INTERRES
    75   39   40 1    
    76   39  105 1    
    77   40   41 1    
    78   40   42 1    
    79   40  106 1    
    80   41  107 1    
    81   41  108 1    
    82   41  109 1    
    83   42   43 2    
    84   42   44 am   BACKBONE|DICT|INTERRES
    85   44   45 1    
    86   44  110 1    
    87   45   46 1    
    88   45   47 1    
    89   45  111 1    
    90   46  112 1    
    91   46  113 1    
    92   46  114 1    
    93   47   48 2    
    94   47   49 am   BACKBONE|DICT|INTERRES
    95   49   50 1    
    96   49  115 1    
    97   50   51 1    
    98   50   52 1    
    99   50  116 1    
   100   51  117 1    
   101   51  118 1    
   102   51  119 1    
   103   52   53 2    
   104   52   54 am   BACKBONE|DICT|INTERRES
   105   54   55 1    
   106   54  120 1    
   107   55   56 1    
   108   55   57 1    
   109   55  121 1    
   110   56  122 1    
   111   56  123 1    
   112   56  124 1    
   113   57   58 2    
   114   57   59 am   BACKBONE|DICT|INTERRES
   115   59   60 1    
   116   59  125 1    
   117   60   61 1    
   118   60   62 1    
   119   60  126 1    
   120   61  127 1    
   121   61  128 1    
   122   61  129 1    
   123   62   63 2    
   124   62   64 am   BACKBONE|DICT|INTERRES
   125   64   65 1    
   126   64  130 1    
   127   65   66 1    
   128   65   69 1    
   129   65  131 1    
   130   66   67 am   BACKBONE|DICT|INTERRES
   131   66   68 2    
   132   67  132 1    
   133   67  133 1    
   134   69   70 1    
   135   69  134 1    
   136   69  135 1    
   137   70   71 1    
   138   71  136 1    
   139   71  137 1    
@<TRIPOS>SUBSTRUCTURE
     1 UNK         1 GROUP             0       ****    0 ROOT    
